external_data/tamu_texas_td/distribution_sample/p1uhs0_1247--p1udt1746/Lines.dss
New Line.l(r:p1udt41lv-p1ulv43) Units=km Length=0.00794618 bus1=p1udt41lv.1.2 bus2=p1ulv43.1.2 switch=n enabled=y phases=2 Linecode=1P_OH_AL_2/0_Rucina_2

New Line.l(r:p1udt42lv-p1ulv44) Units=km Length=0.0116142 bus1=p1udt42lv.1.2 bus2=p1ulv44.1.2 switch=n enabled=y phases=2 Linecode=1P_OH_AL_2/0_Rucina_2

New Line.l(r:p1udt42lv-p1ulv11426) Units=km Length=0.0152182 bus1=p1udt42lv.1.2 bus2=p1ulv11426.1.2 switch=n enabled=y phases=2 Linecode=1P_OH_AL_2/0_Rucina_2

New Line.l(r:p1udm152-p1ulv405) Units=km Length=0.01679 bus1=p1udm152.1.2 bus2=p1ulv405.1.2 switch=n enabled=y phases=2 Linecode=1P_OH_AL_2/0_Rucina_2

New Line.l(r:p1udm152-p1ulv12480) Units=km Length=0.016752 bus1=p1udm152.1.2 bus2=p1ulv12480.1.2 switch=n enabled=y phases=2 Linecode=1P_OH_AL_2/0_Rucina_2

New Line.l(r:p1udm152-p1udt42lv) Units=km Length=0.0189 bus1=p1udt42lv.1.2 bus2=p1udm152.1.2 switch=n enabled=y phases=2 Linecode=1P_OH_AL_2/0_Rucina_2

New Line.l(r:p1udm153-p1ulv3792) Units=km Length=0.0193313 bus1=p1udm153.1.2 bus2=p1ulv3792.1.2 switch=n enabled=y phases=2 Linecode=1P_OH_AL_2/0_Rucina_2

New Line.l(r:p1udm153-p1ulv5325) Units=km Length=0.018942500000000004 bus1=p1udm153.1.2 bus2=p1ulv5325.1.2 switch=n enabled=y phases=2 Linecode=1P_OH_AL_2/0_Rucina_2

New Line.l(r:p1udm153-p1udt42lv) Units=km Length=0.01891 bus1=p1udt42lv.1.2 bus2=p1udm153.1.2 switch=n enabled=y phases=2 Linecode=1P_OH_AL_2/0_Rucina_2

New Line.l(r:p1udt43lv-p1ulv4523) Units=km Length=0.00381425 bus1=p1udt43lv.1.2 bus2=p1ulv4523.1.2 switch=n enabled=y phases=2 Linecode=1P_UG_AL_2/0_Converse_2

New Line.l(r:p1udt43lv-p1ulv8898) Units=km Length=0.0153039 bus1=p1udt43lv.1.2 bus2=p1ulv8898.1.2 switch=n enabled=y phases=2 Linecode=1P_UG_AL_1/0_Brenau_2

New Line.l(r:p1udm157-p1ulv45) Units=km Length=0.0213022 bus1=p1udm157.1.2 bus2=p1ulv45.1.2 switch=n enabled=y phases=2 Linecode=1P_UG_AL_1/0_Brenau_2

New Line.l(r:p1udm157-p1ulv3795) Units=km Length=0.00245231 bus1=p1udm157.1.2 bus2=p1ulv3795.1.2 switch=n enabled=y phases=2 Linecode=1P_UG_AL_1/0_Brenau_2

New Line.l(r:p1udm157-p1udt43lv) Units=km Length=0.019957000000000003 bus1=p1udt43lv.1.2 bus2=p1udm157.1.2 switch=n enabled=y phases=2 Linecode=1P_UG_AL_4/0_Sweetbriar_2

New Line.l(r:p1udm162-p1ulv10102) Units=km Length=0.0147594 bus1=p1udm162.1.2 bus2=p1ulv10102.1.2 switch=n enabled=y phases=2 Linecode=1P_UG_AL_1/0_Brenau_2

New Line.l(r:p1udm158-p1ulv1665) Units=km Length=0.0206592 bus1=p1udm158.1.2 bus2=p1ulv1665.1.2 switch=n enabled=y phases=2 Linecode=1P_UG_AL_1/0_Brenau_2

New Line.l(r:p1udm158-p1udm162) Units=km Length=0.047188400000000005 bus1=p1udm162.1.2 bus2=p1udm158.1.2 switch=n enabled=y phases=2 Linecode=1P_UG_AL_1/0_Brenau_2

New Line.l(r:p1udm162-p1udt43lv) Units=km Length=0.019967 bus1=p1udt43lv.1.2 bus2=p1udm162.1.2 switch=n enabled=y phases=2 Linecode=1P_UG_AL_2/0_Converse_2

New Line.l(r:p1udt51lv-p1ulv53) Units=km Length=0.00622187 bus1=p1udt51lv.1.2 bus2=p1ulv53.1.2 switch=n enabled=y phases=2 Linecode=1P_UG_AL_1/0_Brenau_2

New Line.l(r:p1udm183-p1ulv2339) Units=km Length=0.0138561 bus1=p1udm183.1.2 bus2=p1ulv2339.1.2 switch=n enabled=y phases=2 Linecode=1P_UG_AL_2/0_Converse_2

New Line.l(r:p1udm183-p1udt51lv) Units=km Length=0.0190491 bus1=p1udt51lv.1.2 bus2=p1udm183.1.2 switch=n enabled=y phases=2 Linecode=1P_UG_AL_2/0_Converse_2

New Line.l(r:p1udm185-p1ulv10751) Units=km Length=0.0104432 bus1=p1udm185.1.2 bus2=p1ulv10751.1.2 switch=n enabled=y phases=2 Linecode=1P_UG_AL_1/0_Brenau_2

New Line.l(r:p1udm184-p1ulv3325) Units=km Length=0.0194942 bus1=p1udm184.1.2 bus2=p1ulv3325.1.2 switch=n enabled=y phases=2 Linecode=1P_UG_AL_1/0_Brenau_2

New Line.l(r:p1udm184-p1udm185) Units=km Length=0.00953449 bus1=p1udm185.1.2 bus2=p1udm184.1.2 switch=n enabled=y phases=2 Linecode=1P_UG_AL_1/0_Brenau_2

New Line.l(r:p1udm185-p1udt51lv) Units=km Length=0.019060000000000004 bus1=p1udt51lv.1.2 bus2=p1udm185.1.2 switch=n enabled=y phases=2 Linecode=1P_UG_AL_2/0_Converse_2

New Line.l(r:p1udm186-p1ulv54) Units=km Length=0.0235091 bus1=p1udm186.1.2 bus2=p1ulv54.1.2 switch=n enabled=y phases=2 Linecode=1P_OH_AL_2/0_Rucina_2

New Line.l(r:p1udm186-p1udt52lv) Units=km Length=0.0138822 bus1=p1udt52lv.1.2 bus2=p1udm186.1.2 switch=n enabled=y phases=2 Linecode=1P_OH_AL_2/0_Rucina_2

New Line.l(r:p1udm187-p1ulv9911) Units=km Length=0.0220788 bus1=p1udm187.1.2 bus2=p1ulv9911.1.2 switch=n enabled=y phases=2 Linecode=1P_OH_AL_2/0_Rucina_2

New Line.l(r:p1udm187-p1udt52lv) Units=km Length=0.0162287 bus1=p1udt52lv.1.2 bus2=p1udm187.1.2 switch=n enabled=y phases=2 Linecode=1P_OH_AL_2/0_Rucina_2

New Line.l(r:p1udt53lv-p1ulv1829) Units=km Length=0.0384082 bus1=p1udt53lv.1.2 bus2=p1ulv1829.1.2 switch=n enabled=y phases=2 Linecode=1P_UG_AL_1/0_Brenau_2

New Line.l(r:p1udm188-p1ulv55) Units=km Length=0.012313 bus1=p1udm188.1.2 bus2=p1ulv55.1.2 switch=n enabled=y phases=2 Linecode=1P_UG_AL_1/0_Brenau_2

New Line.l(r:p1udm188-p1udt53lv) Units=km Length=0.0292031 bus1=p1udt53lv.1.2 bus2=p1udm188.1.2 switch=n enabled=y phases=2 Linecode=1P_UG_AL_1/0_Brenau_2

New Line.l(r:p1udm190-p1ulv2827) Units=km Length=0.0655162 bus1=p1udm190.1.2 bus2=p1ulv2827.1.2 switch=n enabled=y phases=2 Linecode=1P_UG_AL_1/0_Brenau_2

New Line.l(r:p1udm190-p1udt53lv) Units=km Length=0.0288396 bus1=p1udt53lv.1.2 bus2=p1udm190.1.2 switch=n enabled=y phases=2 Linecode=1P_UG_AL_1/0_Brenau_2

New Line.l(r:p1udm241-p1ulv70) Units=km Length=0.0116378 bus1=p1udm241.1.2 bus2=p1ulv70.1.2 switch=n enabled=y phases=2 Linecode=1P_UG_AL_1/0_Brenau_2

New Line.l(r:p1udm241-p1udt67lv) Units=km Length=0.00943119 bus1=p1udt67lv.1.2 bus2=p1udm241.1.2 switch=n enabled=y phases=2 Linecode=1P_UG_AL_1/0_Brenau_2

New Line.l(r:p1udm242-p1ulv2609) Units=km Length=0.0118285 bus1=p1udm242.1.2 bus2=p1ulv2609.1.2 switch=n enabled=y phases=2 Linecode=1P_UG_AL_1/0_Brenau_2

New Line.l(r:p1udm242-p1udt67lv) Units=km Length=0.00987041 bus1=p1udt67lv.1.2 bus2=p1udm242.1.2 switch=n enabled=y phases=2 Linecode=1P_UG_AL_1/0_Brenau_2

New Line.l(r:p1udt68lv-p1ulv71) Units=km Length=0.0162844 bus1=p1udt68lv.1.2 bus2=p1ulv71.1.2 switch=n enabled=y phases=2 Linecode=1P_UG_AL_1/0_Brenau_2

New Line.l(r:p1udm244-p1ulv197) Units=km Length=0.014568 bus1=p1udm244.1.2 bus2=p1ulv197.1.2 switch=n enabled=y phases=2 Linecode=1P_UG_AL_1/0_Brenau_2

New Line.l(r:p1udm244-p1udt68lv) Units=km Length=0.0292904 bus1=p1udt68lv.1.2 bus2=p1udm244.1.2 switch=n enabled=y phases=2 Linecode=1P_UG_AL_1/0_Brenau_2

New Line.l(r:p1udm246-p1ulv6924) Units=km Length=0.0139102 bus1=p1udm246.1.2 bus2=p1ulv6924.1.2 switch=n enabled=y phases=2 Linecode=1P_UG_AL_1/0_Brenau_2

New Line.l(r:p1udm245-p1ulv2101) Units=km Length=0.0147834 bus1=p1udm245.1.2 bus2=p1ulv2101.1.2 switch=n enabled=y phases=2 Linecode=1P_UG_AL_1/0_Brenau_2

New Line.l(r:p1udm245-p1udm246) Units=km Length=0.019520300000000004 bus1=p1udm246.1.2 bus2=p1udm245.1.2 switch=n enabled=y phases=2 Linecode=1P_UG_AL_1/0_Brenau_2

New Line.l(r:p1udm246-p1udt68lv) Units=km Length=0.00977013 bus1=p1udt68lv.1.2 bus2=p1udm246.1.2 switch=n enabled=y phases=2 Linecode=1P_UG_AL_2/0_Converse_2

New Line.l(r:p1udm247-p1ulv72) Units=km Length=0.0176701 bus1=p1udm247.1.2 bus2=p1ulv72.1.2 switch=n enabled=y phases=2 Linecode=1P_UG_AL_1/0_Brenau_2

New Line.l(r:p1udm247-p1ulv8654) Units=km Length=0.0115022 bus1=p1udm247.1.2 bus2=p1ulv8654.1.2 switch=n enabled=y phases=2 Linecode=1P_UG_AL_1/0_Brenau_2

New Line.l(r:p1udm247-p1udt69lv) Units=km Length=0.0167096 bus1=p1udt69lv.1.2 bus2=p1udm247.1.2 switch=n enabled=y phases=2 Linecode=1P_UG_AL_4/0_Sweetbriar_2

New Line.l(r:p1udm248-p1ulv8389) Units=km Length=0.00980159 bus1=p1udm248.1.2 bus2=p1ulv8389.1.2 switch=n enabled=y phases=2 Linecode=1P_UG_AL_1/0_Brenau_2

New Line.l(r:p1udm248-p1ulv9185) Units=km Length=0.0105722 bus1=p1udm248.1.2 bus2=p1ulv9185.1.2 switch=n enabled=y phases=2 Linecode=1P_UG_AL_1/0_Brenau_2

New Line.l(r:p1udm248-p1udt69lv) Units=km Length=0.0083494 bus1=p1udt69lv.1.2 bus2=p1udm248.1.2 switch=n enabled=y phases=2 Linecode=1P_UG_AL_2/0_Converse_2

New Line.l(r:p1udm251-p1ulv73) Units=km Length=0.00334168 bus1=p1udm251.1.2 bus2=p1ulv73.1.2 switch=n enabled=y phases=2 Linecode=1P_UG_AL_2/0_Converse_2

New Line.l(r:p1udm251-p1udt70lv) Units=km Length=0.028342 bus1=p1udt70lv.1.2 bus2=p1udm251.1.2 switch=n enabled=y phases=2 Linecode=1P_UG_AL_2/0_Converse_2

New Line.l(r:p1udm252-p1ulv11936) Units=km Length=0.0433198 bus1=p1udm252.1.2 bus2=p1ulv11936.1.2 switch=n enabled=y phases=2 Linecode=1P_UG_AL_1/0_Brenau_2

New Line.l(r:p1udm252-p1udt70lv) Units=km Length=0.0283322 bus1=p1udt70lv.1.2 bus2=p1udm252.1.2 switch=n enabled=y phases=2 Linecode=1P_UG_AL_1/0_Brenau_2

New Line.l(r:p1udt71lv-p1ulv74) Units=km Length=0.0170886 bus1=p1udt71lv.1.2 bus2=p1ulv74.1.2 switch=n enabled=y phases=2 Linecode=1P_UG_AL_1/0_Brenau_2

New Line.l(r:p1udt82lv-p1ulv6535) Units=km Length=0.014568600000000001 bus1=p1udt82lv.1.2 bus2=p1ulv6535.1.2 switch=n enabled=y phases=2 Linecode=1P_UG_AL_1/0_Brenau_2

New Line.l(r:p1udt82lv-p1ulv8401) Units=km Length=0.00938001 bus1=p1udt82lv.1.2 bus2=p1ulv8401.1.2 switch=n enabled=y phases=2 Linecode=1P_UG_AL_1/0_Brenau_2

New Line.l(r:p1udm305-p1ulv85) Units=km Length=0.0181212 bus1=p1udm305.1.2 bus2=p1ulv85.1.2 switch=n enabled=y phases=2 Linecode=1P_UG_AL_1/0_Brenau_2

New Line.l(r:p1udm309-p1ulv12165) Units=km Length=0.0199838 bus1=p1udm309.1.2 bus2=p1ulv12165.1.2 switch=n enabled=y phases=2 Linecode=1P_UG_AL_1/0_Brenau_2

New Line.l(r:p1udm305-p1udm309) Units=km Length=0.0161034 bus1=p1udm305.1.2 bus2=p1udm309.1.2 switch=n enabled=y phases=2 Linecode=1P_UG_AL_1/0_Brenau_2

New Line.l(r:p1udm305-p1udt82lv) Units=km Length=0.00806179 bus1=p1udt82lv.1.2 bus2=p1udm305.1.2 switch=n enabled=y phases=2 Linecode=1P_UG_AL_2/0_Converse_2

New Line.l(r:p1udm306-p1ulv6030) Units=km Length=0.0158195 bus1=p1udm306.1.2 bus2=p1ulv6030.1.2 switch=n enabled=y phases=2 Linecode=1P_UG_AL_1/0_Brenau_2

New Line.l(r:p1udm306-p1udt82lv) Units=km Length=0.0161134 bus1=p1udt82lv.1.2 bus2=p1udm306.1.2 switch=n enabled=y phases=2 Linecode=1P_UG_AL_1/0_Brenau_2

New Line.l(r:p1udt83lv-p1ulv9811) Units=km Length=0.010970200000000001 bus1=p1udt83lv.1.2 bus2=p1ulv9811.1.2 switch=n enabled=y phases=2 Linecode=1P_OH_AL_2/0_Rucina_2

New Line.l(r:p1udm311-p1ulv436) Units=km Length=0.0118946 bus1=p1udm311.1.2 bus2=p1ulv436.1.2 switch=n enabled=y phases=2 Linecode=1P_OH_AL_2/0_Rucina_2

New Line.l(r:p1udm311-p1ulv7284) Units=km Length=0.0191676 bus1=p1udm311.1.2 bus2=p1ulv7284.1.2 switch=n enabled=y phases=2 Linecode=1P_OH_AL_2/0_Rucina_2

New Line.l(r:p1udm310-p1ulv86) Units=km Length=0.0177342 bus1=p1udm310.1.2 bus2=p1ulv86.1.2 switch=n enabled=y phases=2 Linecode=1P_OH_AL_2/0_Rucina_2

New Line.l(r:p1udm310-p1udm311) Units=km Length=0.0160751 bus1=p1udm311.1.2 bus2=p1udm310.1.2 switch=n enabled=y phases=2 Linecode=1P_OH_AL_2/0_Rucina_2

New Line.l(r:p1udm311-p1udt83lv) Units=km Length=0.0160843 bus1=p1udt83lv.1.2 bus2=p1udm311.1.2 switch=n enabled=y phases=2 Linecode=1P_OH_AL_2/0_Rucina_2

New Line.l(r:p1udm313-p1ulv8178) Units=km Length=0.011886600000000002 bus1=p1udm313.1.2 bus2=p1ulv8178.1.2 switch=n enabled=y phases=2 Linecode=1P_OH_AL_2/0_Rucina_2

New Line.l(r:p1udm313-p1udt83lv) Units=km Length=0.0196792 bus1=p1udt83lv.1.2 bus2=p1udm313.1.2 switch=n enabled=y phases=2 Linecode=1P_OH_AL_2/0_Rucina_2

New Line.l(r:p1udt191lv-p1ulv5458) Units=km Length=0.0193197 bus1=p1udt191lv.1.2 bus2=p1ulv5458.1.2 switch=n enabled=y phases=2 Linecode=1P_UG_AL_1/0_Brenau_2

New Line.l(r:p1udm696-p1ulv198) Units=km Length=0.0122223 bus1=p1udm696.1.2 bus2=p1ulv198.1.2 switch=n enabled=y phases=2 Linecode=1P_UG_AL_1/0_Brenau_2

New Line.l(r:p1udm698-p1ulv2232) Units=km Length=0.0112549 bus1=p1udm698.1.2 bus2=p1ulv2232.1.2 switch=n enabled=y phases=2 Linecode=1P_UG_AL_1/0_Brenau_2

New Line.l(r:p1udm696-p1udm698) Units=km Length=0.0196517 bus1=p1udm696.1.2 bus2=p1udm698.1.2 switch=n enabled=y phases=2 Linecode=1P_UG_AL_1/0_Brenau_2

New Line.l(r:p1udm696-p1udt191lv) Units=km Length=0.00982073 bus1=p1udt191lv.1.2 bus2=p1udm696.1.2 switch=n enabled=y phases=2 Linecode=1P_UG_AL_4/0_Sweetbriar_2

New Line.l(r:p1udm700-p1ulv6660) Units=km Length=0.0122408 bus1=p1udm700.1.2 bus2=p1ulv6660.1.2 switch=n enabled=y phases=2 Linecode=1P_UG_AL_1/0_Brenau_2

New Line.l(r:p1udm697-p1ulv1691) Units=km Length=0.0188788 bus1=p1udm697.1.2 bus2=p1ulv1691.1.2 switch=n enabled=y phases=2 Linecode=1P_UG_AL_1/0_Brenau_2

New Line.l(r:p1udm697-p1ulv9428) Units=km Length=0.012904400000000002 bus1=p1udm697.1.2 bus2=p1ulv9428.1.2 switch=n enabled=y phases=2 Linecode=1P_UG_AL_1/0_Brenau_2

New Line.l(r:p1udm697-p1udm700) Units=km Length=0.019641600000000002 bus1=p1udm700.1.2 bus2=p1udm697.1.2 switch=n enabled=y phases=2 Linecode=1P_UG_AL_2/0_Converse_2

New Line.l(r:p1udm700-p1udt191lv) Units=km Length=0.009820860000000002 bus1=p1udt191lv.1.2 bus2=p1udm700.1.2 switch=n enabled=y phases=2 Linecode=1P_UG_AL_4/0_Sweetbriar_2

New Line.l(r:p1udt196lv-p1ulv11824) Units=km Length=0.0192432 bus1=p1udt196lv.1.2 bus2=p1ulv11824.1.2 switch=n enabled=y phases=2 Linecode=1P_OH_AL_2/0_Rucina_2

New Line.l(r:p1udm718-p1ulv203) Units=km Length=0.00869833 bus1=p1udm718.1.2 bus2=p1ulv203.1.2 switch=n enabled=y phases=2 Linecode=1P_OH_AL_2/0_Rucina_2

New Line.l(r:p1udm718-p1ulv11823) Units=km Length=0.0206828 bus1=p1udm718.1.2 bus2=p1ulv11823.1.2 switch=n enabled=y phases=2 Linecode=1P_OH_AL_2/0_Rucina_2

New Line.l(r:p1udm718-p1udt196lv) Units=km Length=0.0196891 bus1=p1udt196lv.1.2 bus2=p1udm718.1.2 switch=n enabled=y phases=2 Linecode=1P_OH_AL_2/0_Rucina_2

New Line.l(r:p1udm720-p1ulv11587) Units=km Length=0.0186069 bus1=p1udm720.1.2 bus2=p1ulv11587.1.2 switch=n enabled=y phases=2 Linecode=1P_OH_AL_2/0_Rucina_2

New Line.l(r:p1udm719-p1ulv204) Units=km Length=0.00785308 bus1=p1udm719.1.2 bus2=p1ulv204.1.2 switch=n enabled=y phases=2 Linecode=1P_OH_AL_2/0_Rucina_2

New Line.l(r:p1udm719-p1udm720) Units=km Length=0.00975636 bus1=p1udm720.1.2 bus2=p1udm719.1.2 switch=n enabled=y phases=2 Linecode=1P_OH_AL_2/0_Rucina_2

New Line.l(r:p1udm720-p1udt196lv) Units=km Length=0.00975734 bus1=p1udt196lv.1.2 bus2=p1udm720.1.2 switch=n enabled=y phases=2 Linecode=1P_OH_AL_2/0_Rucina_2

New Line.l(r:p1udm993-p1ulv289) Units=km Length=0.0123193 bus1=p1udm993.1.2 bus2=p1ulv289.1.2 switch=n enabled=y phases=2 Linecode=1P_UG_AL_1/0_Brenau_2

New Line.l(r:p1udm993-p1udt274lv) Units=km Length=0.00975148 bus1=p1udt274lv.1.2 bus2=p1udm993.1.2 switch=n enabled=y phases=2 Linecode=1P_UG_AL_1/0_Brenau_2

New Line.l(r:p1udm994-p1ulv4400) Units=km Length=0.0125249 bus1=p1udm994.1.2 bus2=p1ulv4400.1.2 switch=n enabled=y phases=2 Linecode=1P_UG_AL_1/0_Brenau_2

New Line.l(r:p1udm994-p1udt274lv) Units=km Length=0.00975148 bus1=p1udt274lv.1.2 bus2=p1udm994.1.2 switch=n enabled=y phases=2 Linecode=1P_UG_AL_1/0_Brenau_2

New Line.l(r:p1udt275lv-p1ulv11912) Units=km Length=0.0253022 bus1=p1udt275lv.1.2 bus2=p1ulv11912.1.2 switch=n enabled=y phases=2 Linecode=1P_UG_AL_1/0_Brenau_2

New Line.l(r:p1udm995-p1ulv290) Units=km Length=0.0092028 bus1=p1udm995.1.2 bus2=p1ulv290.1.2 switch=n enabled=y phases=2 Linecode=1P_UG_AL_1/0_Brenau_2

New Line.l(r:p1udm995-p1ulv8007) Units=km Length=0.0227829 bus1=p1udm995.1.2 bus2=p1ulv8007.1.2 switch=n enabled=y phases=2 Linecode=1P_UG_AL_1/0_Brenau_2

New Line.l(r:p1udm995-p1udt275lv) Units=km Length=0.00997339 bus1=p1udt275lv.1.2 bus2=p1udm995.1.2 switch=n enabled=y phases=2 Linecode=1P_UG_AL_2/0_Converse_2

New Line.l(r:p1udm996-p1ulv4994) Units=km Length=0.026221 bus1=p1udm996.1.2 bus2=p1ulv4994.1.2 switch=n enabled=y phases=2 Linecode=1P_UG_AL_1/0_Brenau_2

New Line.l(r:p1udm996-p1ulv5999) Units=km Length=0.00792602 bus1=p1udm996.1.2 bus2=p1ulv5999.1.2 switch=n enabled=y phases=2 Linecode=1P_UG_AL_1/0_Brenau_2

New Line.l(r:p1udm996-p1udt275lv) Units=km Length=0.0199673 bus1=p1udt275lv.1.2 bus2=p1udm996.1.2 switch=n enabled=y phases=2 Linecode=1P_UG_AL_2/0_Converse_2

New Line.l(r:p1udt280lv-p1ulv296) Units=km Length=0.0106532 bus1=p1udt280lv.1.2 bus2=p1ulv296.1.2 switch=n enabled=y phases=2 Linecode=1P_UG_AL_1/0_Brenau_2

New Line.l(r:p1udm1012-p1ulv1678) Units=km Length=0.019707900000000004 bus1=p1udm1012.1.2 bus2=p1ulv1678.1.2 switch=n enabled=y phases=2 Linecode=1P_UG_AL_1/0_Brenau_2

New Line.l(r:p1udm1011-p1ulv414) Units=km Length=0.0202901 bus1=p1udm1011.1.2 bus2=p1ulv414.1.2 switch=n enabled=y phases=2 Linecode=1P_UG_AL_1/0_Brenau_2

New Line.l(r:p1udm1011-p1ulv12274) Units=km Length=0.0112957 bus1=p1udm1011.1.2 bus2=p1ulv12274.1.2 switch=n enabled=y phases=2 Linecode=1P_UG_AL_1/0_Brenau_2

New Line.l(r:p1udm1011-p1udm1012) Units=km Length=0.00926002 bus1=p1udm1012.1.2 bus2=p1udm1011.1.2 switch=n enabled=y phases=2 Linecode=1P_UG_AL_2/0_Converse_2

New Line.l(r:p1udm1012-p1udt280lv) Units=km Length=0.009259100000000001 bus1=p1udt280lv.1.2 bus2=p1udm1012.1.2 switch=n enabled=y phases=2 Linecode=1P_UG_AL_4/0_Sweetbriar_2

New Line.l(r:p1udm1013-p1ulv4054) Units=km Length=0.019166100000000002 bus1=p1udm1013.1.2 bus2=p1ulv4054.1.2 switch=n enabled=y phases=2 Linecode=1P_UG_AL_1/0_Brenau_2

New Line.l(r:p1udm1015-p1ulv9781) Units=km Length=0.0108752 bus1=p1udm1015.1.2 bus2=p1ulv9781.1.2 switch=n enabled=y phases=2 Linecode=1P_UG_AL_1/0_Brenau_2

New Line.l(r:p1udm1014-p1ulv5565) Units=km Length=0.0192519 bus1=p1udm1014.1.2 bus2=p1ulv5565.1.2 switch=n enabled=y phases=2 Linecode=1P_UG_AL_1/0_Brenau_2

New Line.l(r:p1udm1014-p1udm1015) Units=km Length=0.00926002 bus1=p1udm1015.1.2 bus2=p1udm1014.1.2 switch=n enabled=y phases=2 Linecode=1P_UG_AL_1/0_Brenau_2

New Line.l(r:p1udm1013-p1udm1015) Units=km Length=0.009259100000000001 bus1=p1udm1013.1.2 bus2=p1udm1015.1.2 switch=n enabled=y phases=2 Linecode=1P_UG_AL_2/0_Converse_2

New Line.l(r:p1udm1013-p1udt280lv) Units=km Length=0.00926998 bus1=p1udt280lv.1.2 bus2=p1udm1013.1.2 switch=n enabled=y phases=2 Linecode=1P_UG_AL_4/0_Sweetbriar_2

New Line.l(r:p1udt291lv-p1ulv309) Units=km Length=0.0131699 bus1=p1udt291lv.1.2 bus2=p1ulv309.1.2 switch=n enabled=y phases=2 Linecode=1P_UG_AL_1/0_Brenau_2

New Line.l(r:p1udm1055-p1ulv5893) Units=km Length=0.0190985 bus1=p1udm1055.1.2 bus2=p1ulv5893.1.2 switch=n enabled=y phases=2 Linecode=1P_UG_AL_1/0_Brenau_2

New Line.l(r:p1udm1054-p1ulv5248) Units=km Length=0.0143324 bus1=p1udm1054.1.2 bus2=p1ulv5248.1.2 switch=n enabled=y phases=2 Linecode=1P_UG_AL_1/0_Brenau_2

New Line.l(r:p1udm1057-p1ulv8271) Units=km Length=0.0204754 bus1=p1udm1057.1.2 bus2=p1ulv8271.1.2 switch=n enabled=y phases=2 Linecode=1P_UG_AL_1/0_Brenau_2

New Line.l(r:p1udm1054-p1udm1057) Units=km Length=0.00949026 bus1=p1udm1054.1.2 bus2=p1udm1057.1.2 switch=n enabled=y phases=2 Linecode=1P_UG_AL_1/0_Brenau_2

New Line.l(r:p1udm1054-p1udm1055) Units=km Length=0.0189904 bus1=p1udm1055.1.2 bus2=p1udm1054.1.2 switch=n enabled=y phases=2 Linecode=1P_UG_AL_2/0_Converse_2

New Line.l(r:p1udm1055-p1udt291lv) Units=km Length=0.00950019 bus1=p1udt291lv.1.2 bus2=p1udm1055.1.2 switch=n enabled=y phases=2 Linecode=1P_UG_AL_4/0_Sweetbriar_2

New Line.l(r:p1udm1059-p1ulv8519) Units=km Length=0.0190785 bus1=p1udm1059.1.2 bus2=p1ulv8519.1.2 switch=n enabled=y phases=2 Linecode=1P_UG_AL_1/0_Brenau_2

New Line.l(r:p1udm1058-p1ulv8387) Units=km Length=0.0133819 bus1=p1udm1058.1.2 bus2=p1ulv8387.1.2 switch=n enabled=y phases=2 Linecode=1P_UG_AL_1/0_Brenau_2

New Line.l(r:p1udm1056-p1ulv5894) Units=km Length=0.0130177 bus1=p1udm1056.1.2 bus2=p1ulv5894.1.2 switch=n enabled=y phases=2 Linecode=1P_UG_AL_1/0_Brenau_2

New Line.l(r:p1udm1056-p1udm1058) Units=km Length=0.00949019 bus1=p1udm1058.1.2 bus2=p1udm1056.1.2 switch=n enabled=y phases=2 Linecode=1P_UG_AL_1/0_Brenau_2

New Line.l(r:p1udm1058-p1udm1059) Units=km Length=0.009500260000000002 bus1=p1udm1059.1.2 bus2=p1udm1058.1.2 switch=n enabled=y phases=2 Linecode=1P_UG_AL_2/0_Converse_2

New Line.l(r:p1udm1059-p1udt291lv) Units=km Length=0.00949019 bus1=p1udt291lv.1.2 bus2=p1udm1059.1.2 switch=n enabled=y phases=2 Linecode=1P_UG_AL_4/0_Sweetbriar_2

New Line.l(r:p1udt292lv-p1ulv310) Units=km Length=0.0204185 bus1=p1udt292lv.1.2 bus2=p1ulv310.1.2 switch=n enabled=y phases=2 Linecode=1P_UG_AL_1/0_Brenau_2

New Line.l(r:p1udt292lv-p1ulv11456) Units=km Length=0.0112743 bus1=p1udt292lv.1.2 bus2=p1ulv11456.1.2 switch=n enabled=y phases=2 Linecode=1P_UG_AL_1/0_Brenau_2

New Line.l(r:p1udm1061-p1ulv4910) Units=km Length=0.00955532 bus1=p1udm1061.1.2 bus2=p1ulv4910.1.2 switch=n enabled=y phases=2 Linecode=1P_UG_AL_1/0_Brenau_2

New Line.l(r:p1udm1061-p1udt292lv) Units=km Length=0.0284037 bus1=p1udt292lv.1.2 bus2=p1udm1061.1.2 switch=n enabled=y phases=2 Linecode=1P_UG_AL_1/0_Brenau_2

New Line.l(r:p1udm1062-p1ulv6134) Units=km Length=0.0184141 bus1=p1udm1062.1.2 bus2=p1ulv6134.1.2 switch=n enabled=y phases=2 Linecode=1P_UG_AL_1/0_Brenau_2

New Line.l(r:p1udm1062-p1udt292lv) Units=km Length=0.0182517 bus1=p1udt292lv.1.2 bus2=p1udm1062.1.2 switch=n enabled=y phases=2 Linecode=1P_UG_AL_1/0_Brenau_2

New Line.l(r:p1udt377lv-p1ulv2208) Units=km Length=0.017979 bus1=p1udt377lv.1.2 bus2=p1ulv2208.1.2 switch=n enabled=y phases=2 Linecode=1P_OH_AL_2/0_Rucina_2

New Line.l(r:p1udt377lv-p1ulv2447) Units=km Length=0.0161055 bus1=p1udt377lv.1.2 bus2=p1ulv2447.1.2 switch=n enabled=y phases=2 Linecode=1P_OH_AL_2/0_Rucina_2

New Line.l(r:p1udm1370-p1ulv2815) Units=km Length=0.0330249 bus1=p1udm1370.1.2 bus2=p1ulv2815.1.2 switch=n enabled=y phases=2 Linecode=1P_OH_AL_4/0_Zuzara_2

New Line.l(r:p1udm1370-p1ulv7382) Units=km Length=0.0154017 bus1=p1udm1370.1.2 bus2=p1ulv7382.1.2 switch=n enabled=y phases=2 Linecode=1P_OH_AL_2/0_Rucina_2

New Line.l(r:p1udm1370-p1ulv10236) Units=km Length=0.018179 bus1=p1udm1370.1.2 bus2=p1ulv10236.1.2 switch=n enabled=y phases=2 Linecode=1P_OH_AL_2/0_Rucina_2

New Line.l(r:p1udm1370-p1udt377lv) Units=km Length=0.01891 bus1=p1udt377lv.1.2 bus2=p1udm1370.1.2 switch=n enabled=y phases=2 Linecode=1P_OH_AL_2/0_Rucina_2

New Line.l(r:p1udm1371-p1ulv7140) Units=km Length=0.0292478 bus1=p1udm1371.1.2 bus2=p1ulv7140.1.2 switch=n enabled=y phases=2 Linecode=1P_OH_AL_4/0_Zuzara_2

New Line.l(r:p1udm1367-p1ulv403) Units=km Length=0.00932189 bus1=p1udm1367.1.2 bus2=p1ulv403.1.2 switch=n enabled=y phases=2 Linecode=1P_OH_AL_2/0_Rucina_2

New Line.l(r:p1udm1367-p1udm1371) Units=km Length=0.01891 bus1=p1udm1371.1.2 bus2=p1udm1367.1.2 switch=n enabled=y phases=2 Linecode=1P_OH_AL_2/0_Rucina_2

New Line.l(r:p1udm1371-p1udt377lv) Units=km Length=0.01891 bus1=p1udt377lv.1.2 bus2=p1udm1371.1.2 switch=n enabled=y phases=2 Linecode=1P_OH_AL_2/0_Rucina_2

New Line.l(r:p1udm1386-p1ulv408) Units=km Length=0.00943409 bus1=p1udm1386.1.2 bus2=p1ulv408.1.2 switch=n enabled=y phases=2 Linecode=1P_UG_AL_1/0_Brenau_2

New Line.l(r:p1udm1386-p1ulv11920) Units=km Length=0.0421324 bus1=p1udm1386.1.2 bus2=p1ulv11920.1.2 switch=n enabled=y phases=2 Linecode=1P_UG_AL_1/0_Brenau_2

New Line.l(r:p1udm1386-p1ulv12143) Units=km Length=0.0112261 bus1=p1udm1386.1.2 bus2=p1ulv12143.1.2 switch=n enabled=y phases=2 Linecode=1P_UG_AL_1/0_Brenau_2

New Line.l(r:p1udm1386-p1udt381lv) Units=km Length=0.00957748 bus1=p1udt381lv.1.2 bus2=p1udm1386.1.2 switch=n enabled=y phases=2 Linecode=1P_UG_AL_4/0_Sweetbriar_2

New Line.l(r:p1udm1387-p1ulv9770) Units=km Length=0.0194865 bus1=p1udm1387.1.2 bus2=p1ulv9770.1.2 switch=n enabled=y phases=2 Linecode=1P_UG_AL_1/0_Brenau_2

New Line.l(r:p1udm1387-p1udt381lv) Units=km Length=0.00957748 bus1=p1udt381lv.1.2 bus2=p1udm1387.1.2 switch=n enabled=y phases=2 Linecode=1P_UG_AL_1/0_Brenau_2

New Line.l(r:p1udm1409-p1ulv413) Units=km Length=0.0144375 bus1=p1udm1409.1.2 bus2=p1ulv413.1.2 switch=n enabled=y phases=2 Linecode=1P_UG_AL_1/0_Brenau_2

New Line.l(r:p1udm1413-p1ulv8906) Units=km Length=0.013593900000000003 bus1=p1udm1413.1.2 bus2=p1ulv8906.1.2 switch=n enabled=y phases=2 Linecode=1P_UG_AL_1/0_Brenau_2

New Line.l(r:p1udm1409-p1udm1413) Units=km Length=0.00944019 bus1=p1udm1409.1.2 bus2=p1udm1413.1.2 switch=n enabled=y phases=2 Linecode=1P_UG_AL_1/0_Brenau_2

New Line.l(r:p1udm1409-p1udt386lv) Units=km Length=0.048161 bus1=p1udt386lv.1.2 bus2=p1udm1409.1.2 switch=n enabled=y phases=2 Linecode=1P_UG_AL_2/0_Converse_2

New Line.l(r:p1udm1410-p1ulv3937) Units=km Length=0.0192722 bus1=p1udm1410.1.2 bus2=p1ulv3937.1.2 switch=n enabled=y phases=2 Linecode=1P_UG_AL_1/0_Brenau_2

New Line.l(r:p1udm1410-p1ulv7644) Units=km Length=0.0114629 bus1=p1udm1410.1.2 bus2=p1ulv7644.1.2 switch=n enabled=y phases=2 Linecode=1P_UG_AL_1/0_Brenau_2

New Line.l(r:p1udm1411-p1ulv6510) Units=km Length=0.01542 bus1=p1udm1411.1.2 bus2=p1ulv6510.1.2 switch=n enabled=y phases=2 Linecode=1P_UG_AL_1/0_Brenau_2

New Line.l(r:p1udm1410-p1udm1411) Units=km Length=0.00993025 bus1=p1udm1410.1.2 bus2=p1udm1411.1.2 switch=n enabled=y phases=2 Linecode=1P_UG_AL_1/0_Brenau_2

New Line.l(r:p1udm1410-p1udt386lv) Units=km Length=0.00993018 bus1=p1udt386lv.1.2 bus2=p1udm1410.1.2 switch=n enabled=y phases=2 Linecode=1P_UG_AL_4/0_Sweetbriar_2

New Line.l(r:p1udm1428-p1ulv419) Units=km Length=0.0232615 bus1=p1udm1428.1.2 bus2=p1ulv419.1.2 switch=n enabled=y phases=2 Linecode=1P_OH_AL_2/0_Rucina_2

New Line.l(r:p1udm1428-p1udt391lv) Units=km Length=0.0198502 bus1=p1udt391lv.1.2 bus2=p1udm1428.1.2 switch=n enabled=y phases=2 Linecode=1P_OH_AL_2/0_Rucina_2

New Line.l(r:p1udm1429-p1ulv9671) Units=km Length=0.0164632 bus1=p1udm1429.1.2 bus2=p1ulv9671.1.2 switch=n enabled=y phases=2 Linecode=1P_OH_AL_2/0_Rucina_2

New Line.l(r:p1udm1429-p1udt391lv) Units=km Length=0.0198602 bus1=p1udt391lv.1.2 bus2=p1udm1429.1.2 switch=n enabled=y phases=2 Linecode=1P_OH_AL_2/0_Rucina_2

New Line.l(r:p1udt396lv-p1ulv425) Units=km Length=0.0281078 bus1=p1udt396lv.1.2 bus2=p1ulv425.1.2 switch=n enabled=y phases=2 Linecode=1P_OH_AL_4/0_Zuzara_2

New Line.l(r:p1udt396lv-p1ulv8783) Units=km Length=0.027346000000000002 bus1=p1udt396lv.1.2 bus2=p1ulv8783.1.2 switch=n enabled=y phases=2 Linecode=1P_OH_AL_4/0_Zuzara_2

New Line.l(r:p1udt397lv-p1ulv426) Units=km Length=0.0551482 bus1=p1udt397lv.1.2 bus2=p1ulv426.1.2 switch=n enabled=y phases=2 Linecode=1P_OH_AL_4/0_Zuzara_2

New Line.l(r:p1udm1455-p1ulv9050) Units=km Length=0.0209265 bus1=p1udm1455.1.2 bus2=p1ulv9050.1.2 switch=n enabled=y phases=2 Linecode=1P_OH_AL_2/0_Rucina_2

New Line.l(r:p1udm1455-p1ulv11453) Units=km Length=0.00553263 bus1=p1udm1455.1.2 bus2=p1ulv11453.1.2 switch=n enabled=y phases=2 Linecode=1P_OH_AL_2/0_Rucina_2

New Line.l(r:p1udm1455-p1udt397lv) Units=km Length=0.0388676 bus1=p1udt397lv.1.2 bus2=p1udm1455.1.2 switch=n enabled=y phases=2 Linecode=1P_OH_AL_4/0_Zuzara_2

New Line.l(r:p1udt398lv-p1ulv427) Units=km Length=0.07479230000000002 bus1=p1udt398lv.1.2 bus2=p1ulv427.1.2 switch=n enabled=y phases=2 Linecode=1P_OH_AL_4/0_Zuzara_2

New Line.l(r:p1udt398lv-p1ulv1189) Units=km Length=0.05868 bus1=p1udt398lv.1.2 bus2=p1ulv1189.1.2 switch=n enabled=y phases=2 Linecode=1P_OH_AL_4/0_Zuzara_2

New Line.l(r:p1udt398lv-p1ulv2724) Units=km Length=0.0396914 bus1=p1udt398lv.1.2 bus2=p1ulv2724.1.2 switch=n enabled=y phases=2 Linecode=1P_OH_AL_4/0_Zuzara_2

New Line.l(r:p1udm1460-p1ulv428) Units=km Length=0.0118733 bus1=p1udm1460.1.2 bus2=p1ulv428.1.2 switch=n enabled=y phases=2 Linecode=1P_UG_AL_1/0_Brenau_2

New Line.l(r:p1udm1462-p1ulv7893) Units=km Length=0.0121766 bus1=p1udm1462.1.2 bus2=p1ulv7893.1.2 switch=n enabled=y phases=2 Linecode=1P_UG_AL_1/0_Brenau_2

New Line.l(r:p1udm1460-p1udm1462) Units=km Length=0.0488698 bus1=p1udm1460.1.2 bus2=p1udm1462.1.2 switch=n enabled=y phases=2 Linecode=1P_UG_AL_1/0_Brenau_2

New Line.l(r:p1udm1460-p1udt399lv) Units=km Length=0.009774010000000001 bus1=p1udt399lv.1.2 bus2=p1udm1460.1.2 switch=n enabled=y phases=2 Linecode=1P_UG_AL_2/0_Converse_2

New Line.l(r:p1udm1463-p1ulv8167) Units=km Length=0.017314300000000005 bus1=p1udm1463.1.2 bus2=p1ulv8167.1.2 switch=n enabled=y phases=2 Linecode=1P_UG_AL_1/0_Brenau_2

New Line.l(r:p1udm1463-p1ulv10125) Units=km Length=0.0120985 bus1=p1udm1463.1.2 bus2=p1ulv10125.1.2 switch=n enabled=y phases=2 Linecode=1P_UG_AL_1/0_Brenau_2

New Line.l(r:p1udm1461-p1ulv7160) Units=km Length=0.03777520000000001 bus1=p1udm1461.1.2 bus2=p1ulv7160.1.2 switch=n enabled=y phases=2 Linecode=1P_UG_AL_1/0_Brenau_2

New Line.l(r:p1udm1461-p1udm1463) Units=km Length=0.019548 bus1=p1udm1463.1.2 bus2=p1udm1461.1.2 switch=n enabled=y phases=2 Linecode=1P_UG_AL_1/0_Brenau_2

New Line.l(r:p1udm1463-p1udt399lv) Units=km Length=0.009774010000000001 bus1=p1udt399lv.1.2 bus2=p1udm1463.1.2 switch=n enabled=y phases=2 Linecode=1P_UG_AL_4/0_Sweetbriar_2

New Line.l(r:p1udt400lv-p1ulv429) Units=km Length=0.03116 bus1=p1udt400lv.1.2 bus2=p1ulv429.1.2 switch=n enabled=y phases=2 Linecode=1P_UG_AL_4/0_Sweetbriar_2

New Line.l(r:p1udt407lv-p1ulv437) Units=km Length=0.01347 bus1=p1udt407lv.1.2 bus2=p1ulv437.1.2 switch=n enabled=y phases=2 Linecode=1P_OH_AL_2/0_Rucina_2

New Line.l(r:p1udt407lv-p1ulv9931) Units=km Length=0.013561 bus1=p1udt407lv.1.2 bus2=p1ulv9931.1.2 switch=n enabled=y phases=2 Linecode=1P_OH_AL_2/0_Rucina_2

New Line.l(r:p1udm1495-p1ulv3713) Units=km Length=0.0149359 bus1=p1udm1495.1.2 bus2=p1ulv3713.1.2 switch=n enabled=y phases=2 Linecode=1P_OH_AL_2/0_Rucina_2

New Line.l(r:p1udm1495-p1udt407lv) Units=km Length=0.0185303 bus1=p1udt407lv.1.2 bus2=p1udm1495.1.2 switch=n enabled=y phases=2 Linecode=1P_OH_AL_2/0_Rucina_2

New Line.l(r:p1udm1496-p1ulv3714) Units=km Length=0.0133284 bus1=p1udm1496.1.2 bus2=p1ulv3714.1.2 switch=n enabled=y phases=2 Linecode=1P_OH_AL_2/0_Rucina_2

New Line.l(r:p1udm1496-p1udt407lv) Units=km Length=0.0185303 bus1=p1udt407lv.1.2 bus2=p1udm1496.1.2 switch=n enabled=y phases=2 Linecode=1P_OH_AL_2/0_Rucina_2

New Line.l(r:p1udt408lv-p1ulv12500) Units=km Length=0.0216233 bus1=p1udt408lv.1.2 bus2=p1ulv12500.1.2 switch=n enabled=y phases=2 Linecode=1P_UG_AL_1/0_Brenau_2

New Line.l(r:p1udm1498-p1ulv438) Units=km Length=0.016834 bus1=p1udm1498.1.2 bus2=p1ulv438.1.2 switch=n enabled=y phases=2 Linecode=1P_UG_AL_1/0_Brenau_2

New Line.l(r:p1udm1498-p1udt408lv) Units=km Length=0.00984208 bus1=p1udt408lv.1.2 bus2=p1udm1498.1.2 switch=n enabled=y phases=2 Linecode=1P_UG_AL_1/0_Brenau_2

New Line.l(r:p1udm1716-p1ulv9288) Units=km Length=0.0207217 bus1=p1udm1716.1.2 bus2=p1ulv9288.1.2 switch=n enabled=y phases=2 Linecode=1P_UG_AL_1/0_Brenau_2

New Line.l(r:p1udm1716-p1ulv10737) Units=km Length=0.0114771 bus1=p1udm1716.1.2 bus2=p1ulv10737.1.2 switch=n enabled=y phases=2 Linecode=1P_UG_AL_1/0_Brenau_2

New Line.l(r:p1udm1717-p1ulv9658) Units=km Length=0.00364878 bus1=p1udm1717.1.2 bus2=p1ulv9658.1.2 switch=n enabled=y phases=2 Linecode=1P_UG_AL_1/0_Brenau_2

New Line.l(r:p1udm1716-p1udm1717) Units=km Length=0.0187075 bus1=p1udm1716.1.2 bus2=p1udm1717.1.2 switch=n enabled=y phases=2 Linecode=1P_UG_AL_1/0_Brenau_2

New Line.l(r:p1udm1716-p1udt468lv) Units=km Length=0.00934856 bus1=p1udt468lv.1.2 bus2=p1udm1716.1.2 switch=n enabled=y phases=2 Linecode=1P_UG_AL_4/0_Sweetbriar_2

New Line.l(r:p1udm1720-p1ulv10959) Units=km Length=0.0188787 bus1=p1udm1720.1.2 bus2=p1ulv10959.1.2 switch=n enabled=y phases=2 Linecode=1P_UG_AL_1/0_Brenau_2

New Line.l(r:p1udm1715-p1ulv501) Units=km Length=0.0111178 bus1=p1udm1715.1.2 bus2=p1ulv501.1.2 switch=n enabled=y phases=2 Linecode=1P_UG_AL_1/0_Brenau_2

New Line.l(r:p1udm1718-p1ulv10233) Units=km Length=0.012248900000000002 bus1=p1udm1718.1.2 bus2=p1ulv10233.1.2 switch=n enabled=y phases=2 Linecode=1P_UG_AL_1/0_Brenau_2

New Line.l(r:p1udm1715-p1udm1718) Units=km Length=0.0810528 bus1=p1udm1715.1.2 bus2=p1udm1718.1.2 switch=n enabled=y phases=2 Linecode=1P_UG_AL_1/0_Brenau_2

New Line.l(r:p1udm1715-p1udm1720) Units=km Length=0.00935898 bus1=p1udm1720.1.2 bus2=p1udm1715.1.2 switch=n enabled=y phases=2 Linecode=1P_UG_AL_4/0_Sweetbriar_2

New Line.l(r:p1udm1720-p1udt468lv) Units=km Length=0.00934856 bus1=p1udt468lv.1.2 bus2=p1udm1720.1.2 switch=n enabled=y phases=2 Linecode=1P_UG_AL_4/0_Sweetbriar_2

New Line.l(r:p1udt469lv-p1ulv11076) Units=km Length=0.0171614 bus1=p1udt469lv.1.2 bus2=p1ulv11076.1.2 switch=n enabled=y phases=2 Linecode=1P_OH_AL_2/0_Rucina_2

New Line.l(r:p1udt469lv-p1ulv12479) Units=km Length=0.012676100000000001 bus1=p1udt469lv.1.2 bus2=p1ulv12479.1.2 switch=n enabled=y phases=2 Linecode=1P_OH_AL_2/0_Rucina_2

New Line.l(r:p1udm1721-p1ulv502) Units=km Length=0.0188086 bus1=p1udm1721.1.2 bus2=p1ulv502.1.2 switch=n enabled=y phases=2 Linecode=1P_OH_AL_2/0_Rucina_2

New Line.l(r:p1udm1721-p1ulv4992) Units=km Length=0.0133327 bus1=p1udm1721.1.2 bus2=p1ulv4992.1.2 switch=n enabled=y phases=2 Linecode=1P_OH_AL_2/0_Rucina_2

New Line.l(r:p1udm1721-p1udt469lv) Units=km Length=0.0187001 bus1=p1udt469lv.1.2 bus2=p1udm1721.1.2 switch=n enabled=y phases=2 Linecode=1P_OH_AL_2/0_Rucina_2

New Line.l(r:p1udm1724-p1ulv11795) Units=km Length=0.017703600000000003 bus1=p1udm1724.1.2 bus2=p1ulv11795.1.2 switch=n enabled=y phases=2 Linecode=1P_OH_AL_2/0_Rucina_2

New Line.l(r:p1udm1724-p1udt469lv) Units=km Length=0.01869 bus1=p1udt469lv.1.2 bus2=p1udm1724.1.2 switch=n enabled=y phases=2 Linecode=1P_OH_AL_2/0_Rucina_2

New Line.l(r:p1udt478lv-p1ulv3685) Units=km Length=0.0164407 bus1=p1udt478lv.1.2 bus2=p1ulv3685.1.2 switch=n enabled=y phases=2 Linecode=1P_UG_AL_1/0_Brenau_2

New Line.l(r:p1udm1751-p1ulv956) Units=km Length=0.0142099 bus1=p1udm1751.1.2 bus2=p1ulv956.1.2 switch=n enabled=y phases=2 Linecode=1P_UG_AL_1/0_Brenau_2

New Line.l(r:p1udm1755-p1ulv10744) Units=km Length=0.0178129 bus1=p1udm1755.1.2 bus2=p1ulv10744.1.2 switch=n enabled=y phases=2 Linecode=1P_UG_AL_1/0_Brenau_2

New Line.l(r:p1udm1751-p1udm1755) Units=km Length=0.0190408 bus1=p1udm1751.1.2 bus2=p1udm1755.1.2 switch=n enabled=y phases=2 Linecode=1P_UG_AL_1/0_Brenau_2

New Line.l(r:p1udm1751-p1udt478lv) Units=km Length=0.0190408 bus1=p1udt478lv.1.2 bus2=p1udm1751.1.2 switch=n enabled=y phases=2 Linecode=1P_UG_AL_2/0_Converse_2

New Line.l(r:p1udm1753-p1ulv4293) Units=km Length=0.0169009 bus1=p1udm1753.1.2 bus2=p1ulv4293.1.2 switch=n enabled=y phases=2 Linecode=1P_UG_AL_1/0_Brenau_2

New Line.l(r:p1udm1750-p1ulv511) Units=km Length=0.0152083 bus1=p1udm1750.1.2 bus2=p1ulv511.1.2 switch=n enabled=y phases=2 Linecode=1P_UG_AL_1/0_Brenau_2

New Line.l(r:p1udm1750-p1ulv9410) Units=km Length=0.0165271 bus1=p1udm1750.1.2 bus2=p1ulv9410.1.2 switch=n enabled=y phases=2 Linecode=1P_UG_AL_1/0_Brenau_2

New Line.l(r:p1udm1750-p1udm1753) Units=km Length=0.00952034 bus1=p1udm1753.1.2 bus2=p1udm1750.1.2 switch=n enabled=y phases=2 Linecode=1P_UG_AL_2/0_Converse_2

New Line.l(r:p1udm1753-p1udt478lv) Units=km Length=0.00952043 bus1=p1udt478lv.1.2 bus2=p1udm1753.1.2 switch=n enabled=y phases=2 Linecode=1P_UG_AL_4/0_Sweetbriar_2

New Line.l(r:p1udt479lv-p1ulv512) Units=km Length=0.027732 bus1=p1udt479lv.1.2 bus2=p1ulv512.1.2 switch=n enabled=y phases=2 Linecode=1P_UG_AL_1/0_Brenau_2

New Line.l(r:p1udm1757-p1ulv8767) Units=km Length=0.015411100000000002 bus1=p1udm1757.1.2 bus2=p1ulv8767.1.2 switch=n enabled=y phases=2 Linecode=1P_UG_AL_1/0_Brenau_2

New Line.l(r:p1udm1757-p1udt479lv) Units=km Length=0.0091392 bus1=p1udt479lv.1.2 bus2=p1udm1757.1.2 switch=n enabled=y phases=2 Linecode=1P_UG_AL_1/0_Brenau_2

New Line.l(r:p1udt480lv-p1ulv513) Units=km Length=0.0204454 bus1=p1udt480lv.1.2 bus2=p1ulv513.1.2 switch=n enabled=y phases=2 Linecode=1P_UG_AL_1/0_Brenau_2

New Line.l(r:p1udm1760-p1ulv4900) Units=km Length=0.0199217 bus1=p1udm1760.1.2 bus2=p1ulv4900.1.2 switch=n enabled=y phases=2 Linecode=1P_UG_AL_1/0_Brenau_2

New Line.l(r:p1udm1760-p1ulv7035) Units=km Length=0.00580091 bus1=p1udm1760.1.2 bus2=p1ulv7035.1.2 switch=n enabled=y phases=2 Linecode=1P_UG_AL_1/0_Brenau_2

New Line.l(r:p1udm1760-p1udt480lv) Units=km Length=0.00988183 bus1=p1udt480lv.1.2 bus2=p1udm1760.1.2 switch=n enabled=y phases=2 Linecode=1P_UG_AL_4/0_Sweetbriar_2

New Line.l(r:p1udm1762-p1ulv12485) Units=km Length=0.00582238 bus1=p1udm1762.1.2 bus2=p1ulv12485.1.2 switch=n enabled=y phases=2 Linecode=1P_UG_AL_1/0_Brenau_2

New Line.l(r:p1udm1759-p1ulv1568) Units=km Length=0.0208931 bus1=p1udm1759.1.2 bus2=p1ulv1568.1.2 switch=n enabled=y phases=2 Linecode=1P_UG_AL_1/0_Brenau_2

New Line.l(r:p1udm1759-p1udm1762) Units=km Length=0.009892020000000001 bus1=p1udm1762.1.2 bus2=p1udm1759.1.2 switch=n enabled=y phases=2 Linecode=1P_UG_AL_1/0_Brenau_2

New Line.l(r:p1udm1762-p1udt480lv) Units=km Length=0.00988202 bus1=p1udt480lv.1.2 bus2=p1udm1762.1.2 switch=n enabled=y phases=2 Linecode=1P_UG_AL_2/0_Converse_2

New Line.l(r:p1udt481lv-p1ulv514) Units=km Length=0.0123873 bus1=p1udt481lv.1.2 bus2=p1ulv514.1.2 switch=n enabled=y phases=2 Linecode=1P_UG_AL_1/0_Brenau_2

New Line.l(r:p1udt481lv-p1ulv5669) Units=km Length=0.014958800000000001 bus1=p1udt481lv.1.2 bus2=p1ulv5669.1.2 switch=n enabled=y phases=2 Linecode=1P_UG_AL_1/0_Brenau_2

New Line.l(r:p1udm1764-p1ulv4053) Units=km Length=0.0147648 bus1=p1udm1764.1.2 bus2=p1ulv4053.1.2 switch=n enabled=y phases=2 Linecode=1P_UG_AL_1/0_Brenau_2

New Line.l(r:p1udm1764-p1udt481lv) Units=km Length=0.0189101 bus1=p1udt481lv.1.2 bus2=p1udm1764.1.2 switch=n enabled=y phases=2 Linecode=1P_UG_AL_1/0_Brenau_2

New Line.l(r:p1udm1766-p1ulv10112) Units=km Length=0.013721 bus1=p1udm1766.1.2 bus2=p1ulv10112.1.2 switch=n enabled=y phases=2 Linecode=1P_UG_AL_1/0_Brenau_2

New Line.l(r:p1udm1766-p1udt481lv) Units=km Length=0.0189101 bus1=p1udt481lv.1.2 bus2=p1udm1766.1.2 switch=n enabled=y phases=2 Linecode=1P_UG_AL_1/0_Brenau_2

New Line.l(r:p1udt482lv-p1ulv515) Units=km Length=0.0167546 bus1=p1udt482lv.1.2 bus2=p1ulv515.1.2 switch=n enabled=y phases=2 Linecode=1P_UG_AL_1/0_Brenau_2

New Line.l(r:p1udm1768-p1ulv2602) Units=km Length=0.014656200000000001 bus1=p1udm1768.1.2 bus2=p1ulv2602.1.2 switch=n enabled=y phases=2 Linecode=1P_UG_AL_1/0_Brenau_2

New Line.l(r:p1udm1768-p1ulv5564) Units=km Length=0.0166359 bus1=p1udm1768.1.2 bus2=p1ulv5564.1.2 switch=n enabled=y phases=2 Linecode=1P_UG_AL_1/0_Brenau_2

New Line.l(r:p1udm1768-p1udt482lv) Units=km Length=0.0196736 bus1=p1udt482lv.1.2 bus2=p1udm1768.1.2 switch=n enabled=y phases=2 Linecode=1P_UG_AL_2/0_Converse_2

New Line.l(r:p1udm1770-p1ulv7645) Units=km Length=0.0062304100000000005 bus1=p1udm1770.1.2 bus2=p1ulv7645.1.2 switch=n enabled=y phases=2 Linecode=1P_UG_AL_1/0_Brenau_2

New Line.l(r:p1udm1770-p1ulv10360) Units=km Length=0.018660200000000002 bus1=p1udm1770.1.2 bus2=p1ulv10360.1.2 switch=n enabled=y phases=2 Linecode=1P_UG_AL_1/0_Brenau_2

New Line.l(r:p1udm1770-p1udt482lv) Units=km Length=0.0323336 bus1=p1udt482lv.1.2 bus2=p1udm1770.1.2 switch=n enabled=y phases=2 Linecode=1P_UG_AL_2/0_Converse_2

New Line.l(r:p1udm1772-p1ulv516) Units=km Length=0.0172691 bus1=p1udm1772.1.2 bus2=p1ulv516.1.2 switch=n enabled=y phases=2 Linecode=1P_UG_AL_1/0_Brenau_2

New Line.l(r:p1udm1772-p1udt483lv) Units=km Length=0.00866037 bus1=p1udt483lv.1.2 bus2=p1udm1772.1.2 switch=n enabled=y phases=2 Linecode=1P_UG_AL_1/0_Brenau_2

New Line.l(r:p1udm1773-p1ulv2603) Units=km Length=0.0168602 bus1=p1udm1773.1.2 bus2=p1ulv2603.1.2 switch=n enabled=y phases=2 Linecode=1P_UG_AL_1/0_Brenau_2

New Line.l(r:p1udm1773-p1udt483lv) Units=km Length=0.008660280000000001 bus1=p1udt483lv.1.2 bus2=p1udm1773.1.2 switch=n enabled=y phases=2 Linecode=1P_UG_AL_1/0_Brenau_2

New Line.l(r:p1udt487lv-p1ulv1461) Units=km Length=0.00790712 bus1=p1udt487lv.1.2 bus2=p1ulv1461.1.2 switch=n enabled=y phases=2 Linecode=1P_OH_AL_2/0_Rucina_2

New Line.l(r:p1udm1782-p1ulv520) Units=km Length=0.018220700000000003 bus1=p1udm1782.1.2 bus2=p1ulv520.1.2 switch=n enabled=y phases=2 Linecode=1P_OH_AL_2/0_Rucina_2

New Line.l(r:p1udm1782-p1ulv965) Units=km Length=0.016355 bus1=p1udm1782.1.2 bus2=p1ulv965.1.2 switch=n enabled=y phases=2 Linecode=1P_OH_AL_2/0_Rucina_2

New Line.l(r:p1udm1787-p1ulv5340) Units=km Length=0.0168375 bus1=p1udm1787.1.2 bus2=p1ulv5340.1.2 switch=n enabled=y phases=2 Linecode=1P_OH_AL_2/0_Rucina_2

New Line.l(r:p1udm1782-p1udm1787) Units=km Length=0.0192285 bus1=p1udm1782.1.2 bus2=p1udm1787.1.2 switch=n enabled=y phases=2 Linecode=1P_OH_AL_2/0_Rucina_2

New Line.l(r:p1udm1782-p1udt487lv) Units=km Length=0.0192282 bus1=p1udt487lv.1.2 bus2=p1udm1782.1.2 switch=n enabled=y phases=2 Linecode=1P_OH_AL_2/0_Rucina_2

New Line.l(r:p1udm1788-p1ulv5785) Units=km Length=0.00966255 bus1=p1udm1788.1.2 bus2=p1ulv5785.1.2 switch=n enabled=y phases=2 Linecode=1P_OH_AL_2/0_Rucina_2

New Line.l(r:p1udm1788-p1ulv8651) Units=km Length=0.00983514 bus1=p1udm1788.1.2 bus2=p1ulv8651.1.2 switch=n enabled=y phases=2 Linecode=1P_OH_AL_2/0_Rucina_2

New Line.l(r:p1udm1784-p1ulv1199) Units=km Length=0.0151988 bus1=p1udm1784.1.2 bus2=p1ulv1199.1.2 switch=n enabled=y phases=2 Linecode=1P_OH_AL_2/0_Rucina_2

New Line.l(r:p1udm1784-p1ulv3203) Units=km Length=0.009296220000000001 bus1=p1udm1784.1.2 bus2=p1ulv3203.1.2 switch=n enabled=y phases=2 Linecode=1P_OH_AL_2/0_Rucina_2

New Line.l(r:p1udm1784-p1udm1788) Units=km Length=0.0177482 bus1=p1udm1788.1.2 bus2=p1udm1784.1.2 switch=n enabled=y phases=2 Linecode=1P_OH_AL_2/0_Rucina_2

New Line.l(r:p1udm1788-p1udt487lv) Units=km Length=0.0192285 bus1=p1udt487lv.1.2 bus2=p1udm1788.1.2 switch=n enabled=y phases=2 Linecode=1P_OH_AL_2/0_Rucina_2

New Line.l(r:p1udt488lv-p1ulv521) Units=km Length=0.0319542 bus1=p1udt488lv.1.2 bus2=p1ulv521.1.2 switch=n enabled=y phases=2 Linecode=1P_OH_AL_4/0_Zuzara_2

New Line.l(r:p1udt489lv-p1ulv522) Units=km Length=0.0961816 bus1=p1udt489lv.1.2 bus2=p1ulv522.1.2 switch=n enabled=y phases=2 Linecode=1P_UG_AL_2/0_Converse_2

New Line.l(r:p1udt574lv-p1ulv721) Units=km Length=0.0574885 bus1=p1udt574lv.1.2 bus2=p1ulv721.1.2 switch=n enabled=y phases=2 Linecode=1P_UG_AL_2/0_Converse_2

New Line.l(r:p1udm2116-p1ulv614) Units=km Length=0.00931653 bus1=p1udm2116.1.2 bus2=p1ulv614.1.2 switch=n enabled=y phases=2 Linecode=1P_UG_AL_4/0_Sweetbriar_2

New Line.l(r:p1udm2116-p1udt574lv) Units=km Length=0.00943043 bus1=p1udt574lv.1.2 bus2=p1udm2116.1.2 switch=n enabled=y phases=2 Linecode=1P_UG_AL_4/0_Sweetbriar_2

New Line.l(r:p1udm2118-p1ulv3801) Units=km Length=0.0087773 bus1=p1udm2118.1.2 bus2=p1ulv3801.1.2 switch=n enabled=y phases=2 Linecode=1P_UG_AL_4/0_Sweetbriar_2

New Line.l(r:p1udm2118-p1udt574lv) Units=km Length=0.00942053 bus1=p1udt574lv.1.2 bus2=p1udm2118.1.2 switch=n enabled=y phases=2 Linecode=1P_UG_AL_4/0_Sweetbriar_2

New Line.l(r:p1udm2120-p1ulv1677) Units=km Length=0.0198498 bus1=p1udm2120.1.2 bus2=p1ulv1677.1.2 switch=n enabled=y phases=2 Linecode=1P_UG_AL_2/0_Converse_2

New Line.l(r:p1udm2119-p1ulv615) Units=km Length=0.0208462 bus1=p1udm2119.1.2 bus2=p1ulv615.1.2 switch=n enabled=y phases=2 Linecode=1P_UG_AL_1/0_Brenau_2

New Line.l(r:p1udm2119-p1udm2120) Units=km Length=0.009900130000000002 bus1=p1udm2120.1.2 bus2=p1udm2119.1.2 switch=n enabled=y phases=2 Linecode=1P_UG_AL_1/0_Brenau_2

New Line.l(r:p1udm2120-p1udt575lv) Units=km Length=0.009890180000000002 bus1=p1udt575lv.1.2 bus2=p1udm2120.1.2 switch=n enabled=y phases=2 Linecode=1P_UG_AL_4/0_Sweetbriar_2

New Line.l(r:p1udm2121-p1ulv11197) Units=km Length=0.021943 bus1=p1udm2121.1.2 bus2=p1ulv11197.1.2 switch=n enabled=y phases=2 Linecode=1P_UG_AL_1/0_Brenau_2

New Line.l(r:p1udm2122-p1ulv11804) Units=km Length=0.0183803 bus1=p1udm2122.1.2 bus2=p1ulv11804.1.2 switch=n enabled=y phases=2 Linecode=1P_UG_AL_1/0_Brenau_2

New Line.l(r:p1udm2121-p1udm2122) Units=km Length=0.0174427 bus1=p1udm2121.1.2 bus2=p1udm2122.1.2 switch=n enabled=y phases=2 Linecode=1P_UG_AL_1/0_Brenau_2

New Line.l(r:p1udm2121-p1udt575lv) Units=km Length=0.0129287 bus1=p1udt575lv.1.2 bus2=p1udm2121.1.2 switch=n enabled=y phases=2 Linecode=1P_UG_AL_2/0_Converse_2

New Line.l(r:p1udm2124-p1ulv2086) Units=km Length=0.0152792 bus1=p1udm2124.1.2 bus2=p1ulv2086.1.2 switch=n enabled=y phases=2 Linecode=1P_UG_AL_1/0_Brenau_2

New Line.l(r:p1udm2123-p1ulv616) Units=km Length=0.0163588 bus1=p1udm2123.1.2 bus2=p1ulv616.1.2 switch=n enabled=y phases=2 Linecode=1P_UG_AL_2/0_Converse_2

New Line.l(r:p1udm2123-p1udm2124) Units=km Length=0.00983659 bus1=p1udm2124.1.2 bus2=p1udm2123.1.2 switch=n enabled=y phases=2 Linecode=1P_UG_AL_2/0_Converse_2

New Line.l(r:p1udm2124-p1udt576lv) Units=km Length=0.009836960000000002 bus1=p1udt576lv.1.2 bus2=p1udm2124.1.2 switch=n enabled=y phases=2 Linecode=1P_UG_AL_4/0_Sweetbriar_2

New Line.l(r:p1udm2125-p1ulv2713) Units=km Length=0.0156687 bus1=p1udm2125.1.2 bus2=p1ulv2713.1.2 switch=n enabled=y phases=2 Linecode=1P_UG_AL_2/0_Converse_2

New Line.l(r:p1udm2125-p1ulv2828) Units=km Length=0.0162295 bus1=p1udm2125.1.2 bus2=p1ulv2828.1.2 switch=n enabled=y phases=2 Linecode=1P_UG_AL_1/0_Brenau_2

New Line.l(r:p1udm2125-p1udt576lv) Units=km Length=0.00983659 bus1=p1udt576lv.1.2 bus2=p1udm2125.1.2 switch=n enabled=y phases=2 Linecode=1P_UG_AL_4/0_Sweetbriar_2

New Line.l(r:p1udt577lv-p1ulv617) Units=km Length=0.0135166 bus1=p1udt577lv.1.2 bus2=p1ulv617.1.2 switch=n enabled=y phases=2 Linecode=1P_OH_AL_2/0_Rucina_2

New Line.l(r:p1udt577lv-p1ulv7036) Units=km Length=0.0126772 bus1=p1udt577lv.1.2 bus2=p1ulv7036.1.2 switch=n enabled=y phases=2 Linecode=1P_OH_AL_2/0_Rucina_2

New Line.l(r:p1udm2129-p1ulv8154) Units=km Length=0.0230743 bus1=p1udm2129.1.2 bus2=p1ulv8154.1.2 switch=n enabled=y phases=2 Linecode=1P_OH_AL_2/0_Rucina_2

New Line.l(r:p1udm2129-p1udt577lv) Units=km Length=0.0872137 bus1=p1udt577lv.1.2 bus2=p1udm2129.1.2 switch=n enabled=y phases=2 Linecode=1P_OH_AL_4/0_Zuzara_2

New Line.l(r:p1udm2130-p1ulv618) Units=km Length=0.00779401 bus1=p1udm2130.1.2 bus2=p1ulv618.1.2 switch=n enabled=y phases=2 Linecode=1P_OH_AL_2/0_Rucina_2

New Line.l(r:p1udm2130-p1udt578lv) Units=km Length=0.0181539 bus1=p1udt578lv.1.2 bus2=p1udm2130.1.2 switch=n enabled=y phases=2 Linecode=1P_OH_AL_2/0_Rucina_2

New Line.l(r:p1udm2131-p1ulv4295) Units=km Length=0.030055000000000002 bus1=p1udm2131.1.2 bus2=p1ulv4295.1.2 switch=n enabled=y phases=2 Linecode=1P_OH_AL_4/0_Zuzara_2

New Line.l(r:p1udm2131-p1udt578lv) Units=km Length=0.018156300000000004 bus1=p1udt578lv.1.2 bus2=p1udm2131.1.2 switch=n enabled=y phases=2 Linecode=1P_OH_AL_2/0_Rucina_2

New Line.l(r:p1udt585lv-p1ulv625) Units=km Length=0.0130401 bus1=p1udt585lv.1.2 bus2=p1ulv625.1.2 switch=n enabled=y phases=2 Linecode=1P_UG_AL_1/0_Brenau_2

New Line.l(r:p1udm2158-p1ulv6923) Units=km Length=0.0124334 bus1=p1udm2158.1.2 bus2=p1ulv6923.1.2 switch=n enabled=y phases=2 Linecode=1P_UG_AL_1/0_Brenau_2

New Line.l(r:p1udm2158-p1udt585lv) Units=km Length=0.00943119 bus1=p1udt585lv.1.2 bus2=p1udm2158.1.2 switch=n enabled=y phases=2 Linecode=1P_UG_AL_1/0_Brenau_2

New Line.l(r:p1udt586lv-p1ulv626) Units=km Length=0.0167945 bus1=p1udt586lv.1.2 bus2=p1ulv626.1.2 switch=n enabled=y phases=2 Linecode=1P_UG_AL_1/0_Brenau_2

New Line.l(r:p1udt586lv-p1ulv5786) Units=km Length=0.015038 bus1=p1udt586lv.1.2 bus2=p1ulv5786.1.2 switch=n enabled=y phases=2 Linecode=1P_UG_AL_1/0_Brenau_2

New Line.l(r:p1udm2160-p1ulv5009) Units=km Length=0.0180963 bus1=p1udm2160.1.2 bus2=p1ulv5009.1.2 switch=n enabled=y phases=2 Linecode=1P_UG_AL_1/0_Brenau_2

New Line.l(r:p1udm2160-p1ulv10020) Units=km Length=0.0129591 bus1=p1udm2160.1.2 bus2=p1ulv10020.1.2 switch=n enabled=y phases=2 Linecode=1P_UG_AL_1/0_Brenau_2

New Line.l(r:p1udm2160-p1udt586lv) Units=km Length=0.0193141 bus1=p1udt586lv.1.2 bus2=p1udm2160.1.2 switch=n enabled=y phases=2 Linecode=1P_UG_AL_2/0_Converse_2

New Line.l(r:p1udm2162-p1ulv9923) Units=km Length=0.0152775 bus1=p1udm2162.1.2 bus2=p1ulv9923.1.2 switch=n enabled=y phases=2 Linecode=1P_UG_AL_1/0_Brenau_2

New Line.l(r:p1udm2162-p1udt586lv) Units=km Length=0.0193244 bus1=p1udt586lv.1.2 bus2=p1udm2162.1.2 switch=n enabled=y phases=2 Linecode=1P_UG_AL_1/0_Brenau_2

New Line.l(r:p1udt665lv-p1ulv717) Units=km Length=0.0149171 bus1=p1udt665lv.1.2 bus2=p1ulv717.1.2 switch=n enabled=y phases=2 Linecode=1P_OH_AL_2/0_Rucina_2

New Line.l(r:p1udt665lv-p1ulv6255) Units=km Length=0.0156449 bus1=p1udt665lv.1.2 bus2=p1ulv6255.1.2 switch=n enabled=y phases=2 Linecode=1P_OH_AL_2/0_Rucina_2

New Line.l(r:p1udm2474-p1ulv6004) Units=km Length=0.0159166 bus1=p1udm2474.1.2 bus2=p1ulv6004.1.2 switch=n enabled=y phases=2 Linecode=1P_OH_AL_2/0_Rucina_2

New Line.l(r:p1udm2474-p1udt665lv) Units=km Length=0.018860100000000005 bus1=p1udt665lv.1.2 bus2=p1udm2474.1.2 switch=n enabled=y phases=2 Linecode=1P_OH_AL_2/0_Rucina_2

New Line.l(r:p1udt668lv-p1ulv5236) Units=km Length=0.0113735 bus1=p1udt668lv.1.2 bus2=p1ulv5236.1.2 switch=n enabled=y phases=2 Linecode=1P_UG_AL_1/0_Brenau_2

New Line.l(r:p1udm2486-p1ulv2337) Units=km Length=0.011337 bus1=p1udm2486.1.2 bus2=p1ulv2337.1.2 switch=n enabled=y phases=2 Linecode=1P_UG_AL_1/0_Brenau_2

New Line.l(r:p1udm2486-p1ulv10005) Units=km Length=0.0202501 bus1=p1udm2486.1.2 bus2=p1ulv10005.1.2 switch=n enabled=y phases=2 Linecode=1P_UG_AL_1/0_Brenau_2

New Line.l(r:p1udm2486-p1udt668lv) Units=km Length=0.019790300000000004 bus1=p1udt668lv.1.2 bus2=p1udm2486.1.2 switch=n enabled=y phases=2 Linecode=1P_UG_AL_2/0_Converse_2

New Line.l(r:p1udm2487-p1ulv3323) Units=km Length=0.0203222 bus1=p1udm2487.1.2 bus2=p1ulv3323.1.2 switch=n enabled=y phases=2 Linecode=1P_UG_AL_1/0_Brenau_2

New Line.l(r:p1udm2485-p1ulv722) Units=km Length=0.0199403 bus1=p1udm2485.1.2 bus2=p1ulv722.1.2 switch=n enabled=y phases=2 Linecode=1P_UG_AL_1/0_Brenau_2

New Line.l(r:p1udm2488-p1ulv4052) Units=km Length=0.011489 bus1=p1udm2488.1.2 bus2=p1ulv4052.1.2 switch=n enabled=y phases=2 Linecode=1P_UG_AL_1/0_Brenau_2

New Line.l(r:p1udm2485-p1udm2488) Units=km Length=0.009900130000000002 bus1=p1udm2485.1.2 bus2=p1udm2488.1.2 switch=n enabled=y phases=2 Linecode=1P_UG_AL_1/0_Brenau_2

New Line.l(r:p1udm2485-p1udm2487) Units=km Length=0.0198003 bus1=p1udm2487.1.2 bus2=p1udm2485.1.2 switch=n enabled=y phases=2 Linecode=1P_UG_AL_2/0_Converse_2

New Line.l(r:p1udm2487-p1udt668lv) Units=km Length=0.009900130000000002 bus1=p1udt668lv.1.2 bus2=p1udm2487.1.2 switch=n enabled=y phases=2 Linecode=1P_UG_AL_4/0_Sweetbriar_2

New Line.l(r:p1udt669lv-p1ulv723) Units=km Length=0.0173454 bus1=p1udt669lv.1.2 bus2=p1ulv723.1.2 switch=n enabled=y phases=2 Linecode=1P_UG_AL_1/0_Brenau_2

New Line.l(r:p1udm2492-p1ulv3193) Units=km Length=0.0153717 bus1=p1udm2492.1.2 bus2=p1ulv3193.1.2 switch=n enabled=y phases=2 Linecode=1P_UG_AL_1/0_Brenau_2

New Line.l(r:p1udm2492-p1ulv3938) Units=km Length=0.0172684 bus1=p1udm2492.1.2 bus2=p1ulv3938.1.2 switch=n enabled=y phases=2 Linecode=1P_UG_AL_1/0_Brenau_2

New Line.l(r:p1udm2492-p1udt669lv) Units=km Length=0.00946008 bus1=p1udt669lv.1.2 bus2=p1udm2492.1.2 switch=n enabled=y phases=2 Linecode=1P_UG_AL_2/0_Converse_2

New Line.l(r:p1udm2494-p1ulv9546) Units=km Length=0.00757729 bus1=p1udm2494.1.2 bus2=p1ulv9546.1.2 switch=n enabled=y phases=2 Linecode=1P_UG_AL_1/0_Brenau_2

New Line.l(r:p1udm2494-p1udt669lv) Units=km Length=0.0471402 bus1=p1udt669lv.1.2 bus2=p1udm2494.1.2 switch=n enabled=y phases=2 Linecode=1P_UG_AL_1/0_Brenau_2

New Line.l(r:p1udt670lv-p1ulv724) Units=km Length=0.0121731 bus1=p1udt670lv.1.2 bus2=p1ulv724.1.2 switch=n enabled=y phases=2 Linecode=1P_OH_AL_2/0_Rucina_2

New Line.l(r:p1udt770lv-p1ulv2446) Units=km Length=0.0147556 bus1=p1udt770lv.1.2 bus2=p1ulv2446.1.2 switch=n enabled=y phases=2 Linecode=1P_OH_AL_2/0_Rucina_2

New Line.l(r:p1udm2855-p1ulv844) Units=km Length=0.0162706 bus1=p1udm2855.1.2 bus2=p1ulv844.1.2 switch=n enabled=y phases=2 Linecode=1P_OH_AL_2/0_Rucina_2

New Line.l(r:p1udm2855-p1udt770lv) Units=km Length=0.0188701 bus1=p1udt770lv.1.2 bus2=p1udm2855.1.2 switch=n enabled=y phases=2 Linecode=1P_OH_AL_2/0_Rucina_2

New Line.l(r:p1udm2871-p1ulv1191) Units=km Length=0.00830537 bus1=p1udm2871.1.2 bus2=p1ulv1191.1.2 switch=n enabled=y phases=2 Linecode=1P_UG_AL_2/0_Converse_2

New Line.l(r:p1udm2871-p1ulv11802) Units=km Length=0.0173682 bus1=p1udm2871.1.2 bus2=p1ulv11802.1.2 switch=n enabled=y phases=2 Linecode=1P_UG_AL_1/0_Brenau_2

New Line.l(r:p1udm2871-p1udt775lv) Units=km Length=0.00960088 bus1=p1udt775lv.1.2 bus2=p1udm2871.1.2 switch=n enabled=y phases=2 Linecode=1P_UG_AL_4/0_Sweetbriar_2

New Line.l(r:p1udm2872-p1ulv5446) Units=km Length=0.0155192 bus1=p1udm2872.1.2 bus2=p1ulv5446.1.2 switch=n enabled=y phases=2 Linecode=1P_UG_AL_1/0_Brenau_2

New Line.l(r:p1udm2870-p1ulv849) Units=km Length=0.0155827 bus1=p1udm2870.1.2 bus2=p1ulv849.1.2 switch=n enabled=y phases=2 Linecode=1P_UG_AL_1/0_Brenau_2

New Line.l(r:p1udm2870-p1udm2872) Units=km Length=0.00959075 bus1=p1udm2872.1.2 bus2=p1udm2870.1.2 switch=n enabled=y phases=2 Linecode=1P_UG_AL_1/0_Brenau_2

New Line.l(r:p1udm2872-p1udt775lv) Units=km Length=0.00960088 bus1=p1udt775lv.1.2 bus2=p1udm2872.1.2 switch=n enabled=y phases=2 Linecode=1P_UG_AL_4/0_Sweetbriar_2

New Line.l(r:p1udm2877-p1ulv851) Units=km Length=0.0152188 bus1=p1udm2877.1.2 bus2=p1ulv851.1.2 switch=n enabled=y phases=2 Linecode=1P_UG_AL_1/0_Brenau_2

New Line.l(r:p1udm2877-p1ulv3686) Units=km Length=0.01406 bus1=p1udm2877.1.2 bus2=p1ulv3686.1.2 switch=n enabled=y phases=2 Linecode=1P_UG_AL_1/0_Brenau_2

New Line.l(r:p1udm2881-p1ulv8908) Units=km Length=0.015238700000000003 bus1=p1udm2881.1.2 bus2=p1ulv8908.1.2 switch=n enabled=y phases=2 Linecode=1P_UG_AL_1/0_Brenau_2

New Line.l(r:p1udm2877-p1udm2881) Units=km Length=0.0189402 bus1=p1udm2877.1.2 bus2=p1udm2881.1.2 switch=n enabled=y phases=2 Linecode=1P_UG_AL_1/0_Brenau_2

New Line.l(r:p1udm2877-p1udt777lv) Units=km Length=0.00947008 bus1=p1udt777lv.1.2 bus2=p1udm2877.1.2 switch=n enabled=y phases=2 Linecode=1P_UG_AL_4/0_Sweetbriar_2

New Line.l(r:p1udm2878-p1ulv2087) Units=km Length=0.014728200000000002 bus1=p1udm2878.1.2 bus2=p1ulv2087.1.2 switch=n enabled=y phases=2 Linecode=1P_UG_AL_1/0_Brenau_2

New Line.l(r:p1udm2880-p1ulv6778) Units=km Length=0.0140101 bus1=p1udm2880.1.2 bus2=p1ulv6778.1.2 switch=n enabled=y phases=2 Linecode=1P_UG_AL_1/0_Brenau_2

New Line.l(r:p1udm2878-p1udm2880) Units=km Length=0.0382509 bus1=p1udm2878.1.2 bus2=p1udm2880.1.2 switch=n enabled=y phases=2 Linecode=1P_UG_AL_1/0_Brenau_2

New Line.l(r:p1udm2878-p1udt777lv) Units=km Length=0.00947008 bus1=p1udt777lv.1.2 bus2=p1udm2878.1.2 switch=n enabled=y phases=2 Linecode=1P_UG_AL_2/0_Converse_2

New Line.l(r:p1udm2882-p1ulv852) Units=km Length=0.0314303 bus1=p1udm2882.1.2 bus2=p1ulv852.1.2 switch=n enabled=y phases=2 Linecode=1P_OH_AL_4/0_Zuzara_2

New Line.l(r:p1udm2884-p1ulv7151) Units=km Length=0.0264288 bus1=p1udm2884.1.2 bus2=p1ulv7151.1.2 switch=n enabled=y phases=2 Linecode=1P_OH_AL_2/0_Rucina_2

New Line.l(r:p1udm2882-p1udm2884) Units=km Length=0.0795433 bus1=p1udm2882.1.2 bus2=p1udm2884.1.2 switch=n enabled=y phases=2 Linecode=1P_OH_AL_4/0_Zuzara_2

New Line.l(r:p1udm2882-p1udt778lv) Units=km Length=0.0199443 bus1=p1udt778lv.1.2 bus2=p1udm2882.1.2 switch=n enabled=y phases=2 Linecode=1P_OH_AL_2/0_Rucina_2

New Line.l(r:p1udm2883-p1ulv2460) Units=km Length=0.0249293 bus1=p1udm2883.1.2 bus2=p1ulv2460.1.2 switch=n enabled=y phases=2 Linecode=1P_OH_AL_2/0_Rucina_2

New Line.l(r:p1udm2883-p1ulv7877) Units=km Length=0.0157204 bus1=p1udm2883.1.2 bus2=p1ulv7877.1.2 switch=n enabled=y phases=2 Linecode=1P_OH_AL_2/0_Rucina_2

New Line.l(r:p1udm2883-p1udt778lv) Units=km Length=0.019954 bus1=p1udt778lv.1.2 bus2=p1udm2883.1.2 switch=n enabled=y phases=2 Linecode=1P_OH_AL_2/0_Rucina_2

New Line.l(r:p1udm2947-p1ulv866) Units=km Length=0.0176708 bus1=p1udm2947.1.2 bus2=p1ulv866.1.2 switch=n enabled=y phases=2 Linecode=1P_UG_AL_1/0_Brenau_2

New Line.l(r:p1udm2950-p1ulv11105) Units=km Length=0.021514100000000005 bus1=p1udm2950.1.2 bus2=p1ulv11105.1.2 switch=n enabled=y phases=2 Linecode=1P_UG_AL_1/0_Brenau_2

New Line.l(r:p1udm2947-p1udm2950) Units=km Length=0.048553 bus1=p1udm2947.1.2 bus2=p1udm2950.1.2 switch=n enabled=y phases=2 Linecode=1P_UG_AL_1/0_Brenau_2

New Line.l(r:p1udm2947-p1udt792lv) Units=km Length=0.00987114 bus1=p1udt792lv.1.2 bus2=p1udm2947.1.2 switch=n enabled=y phases=2 Linecode=1P_UG_AL_2/0_Converse_2

New Line.l(r:p1udm2948-p1ulv3111) Units=km Length=0.0171493 bus1=p1udm2948.1.2 bus2=p1ulv3111.1.2 switch=n enabled=y phases=2 Linecode=1P_UG_AL_1/0_Brenau_2

New Line.l(r:p1udm2948-p1ulv3712) Units=km Length=0.00875343 bus1=p1udm2948.1.2 bus2=p1ulv3712.1.2 switch=n enabled=y phases=2 Linecode=1P_UG_AL_1/0_Brenau_2

New Line.l(r:p1udm2948-p1udt792lv) Units=km Length=0.00987114 bus1=p1udt792lv.1.2 bus2=p1udm2948.1.2 switch=n enabled=y phases=2 Linecode=1P_UG_AL_2/0_Converse_2

New Line.l(r:p1udm3237-p1ulv966) Units=km Length=0.018781 bus1=p1udm3237.1.2 bus2=p1ulv966.1.2 switch=n enabled=y phases=2 Linecode=1P_UG_AL_1/0_Brenau_2

New Line.l(r:p1udm3237-p1udt874lv) Units=km Length=0.019513700000000002 bus1=p1udt874lv.1.2 bus2=p1udm3237.1.2 switch=n enabled=y phases=2 Linecode=1P_UG_AL_1/0_Brenau_2

New Line.l(r:p1udm3238-p1ulv8027) Units=km Length=0.0193237 bus1=p1udm3238.1.2 bus2=p1ulv8027.1.2 switch=n enabled=y phases=2 Linecode=1P_UG_AL_1/0_Brenau_2

New Line.l(r:p1udm3238-p1udt874lv) Units=km Length=0.0195038 bus1=p1udt874lv.1.2 bus2=p1udm3238.1.2 switch=n enabled=y phases=2 Linecode=1P_UG_AL_1/0_Brenau_2

New Line.l(r:p1udt875lv-p1ulv967) Units=km Length=0.0348929 bus1=p1udt875lv.1.2 bus2=p1ulv967.1.2 switch=n enabled=y phases=2 Linecode=1P_UG_AL_4/0_Sweetbriar_2

New Line.l(r:p1udt951lv-p1ulv4754) Units=km Length=0.019267400000000004 bus1=p1udt951lv.1.2 bus2=p1ulv4754.1.2 switch=n enabled=y phases=2 Linecode=1P_OH_AL_2/0_Rucina_2

New Line.l(r:p1udt951lv-p1ulv10738) Units=km Length=0.014411400000000001 bus1=p1udt951lv.1.2 bus2=p1ulv10738.1.2 switch=n enabled=y phases=2 Linecode=1P_OH_AL_2/0_Rucina_2

New Line.l(r:p1udm3469-p1ulv1063) Units=km Length=0.0143416 bus1=p1udm3469.1.2 bus2=p1ulv1063.1.2 switch=n enabled=y phases=2 Linecode=1P_OH_AL_2/0_Rucina_2

New Line.l(r:p1udm3469-p1ulv1662) Units=km Length=0.0175451 bus1=p1udm3469.1.2 bus2=p1ulv1662.1.2 switch=n enabled=y phases=2 Linecode=1P_OH_AL_2/0_Rucina_2

New Line.l(r:p1udm3471-p1ulv1560) Units=km Length=0.0181833 bus1=p1udm3471.1.2 bus2=p1ulv1560.1.2 switch=n enabled=y phases=2 Linecode=1P_OH_AL_2/0_Rucina_2

New Line.l(r:p1udm3469-p1udm3471) Units=km Length=0.034695 bus1=p1udm3469.1.2 bus2=p1udm3471.1.2 switch=n enabled=y phases=2 Linecode=1P_OH_AL_4/0_Zuzara_2

New Line.l(r:p1udm3469-p1udt951lv) Units=km Length=0.0173424 bus1=p1udt951lv.1.2 bus2=p1udm3469.1.2 switch=n enabled=y phases=2 Linecode=1P_OH_AL_2/0_Rucina_2

New Line.l(r:p1udm3470-p1ulv1181) Units=km Length=0.014565 bus1=p1udm3470.1.2 bus2=p1ulv1181.1.2 switch=n enabled=y phases=2 Linecode=1P_OH_AL_2/0_Rucina_2

New Line.l(r:p1udm3470-p1ulv3314) Units=km Length=0.0181777 bus1=p1udm3470.1.2 bus2=p1ulv3314.1.2 switch=n enabled=y phases=2 Linecode=1P_OH_AL_2/0_Rucina_2

New Line.l(r:p1udm3470-p1udt951lv) Units=km Length=0.0187001 bus1=p1udt951lv.1.2 bus2=p1udm3470.1.2 switch=n enabled=y phases=2 Linecode=1P_OH_AL_2/0_Rucina_2

New Line.l(r:p1udm3500-p1ulv1071) Units=km Length=0.0313551 bus1=p1udm3500.1.2 bus2=p1ulv1071.1.2 switch=n enabled=y phases=2 Linecode=1P_OH_AL_4/0_Zuzara_2

New Line.l(r:p1udm3500-p1udt958lv) Units=km Length=0.0199201 bus1=p1udt958lv.1.2 bus2=p1udm3500.1.2 switch=n enabled=y phases=2 Linecode=1P_OH_AL_2/0_Rucina_2

New Line.l(r:p1udm3501-p1ulv12141) Units=km Length=0.0333247 bus1=p1udm3501.1.2 bus2=p1ulv12141.1.2 switch=n enabled=y phases=2 Linecode=1P_OH_AL_4/0_Zuzara_2

New Line.l(r:p1udm3501-p1udt958lv) Units=km Length=0.0199201 bus1=p1udt958lv.1.2 bus2=p1udm3501.1.2 switch=n enabled=y phases=2 Linecode=1P_OH_AL_2/0_Rucina_2

New Line.l(r:p1udt959lv-p1ulv1190) Units=km Length=0.00754006 bus1=p1udt959lv.1.2 bus2=p1ulv1190.1.2 switch=n enabled=y phases=2 Linecode=1P_OH_AL_2/0_Rucina_2

New Line.l(r:p1udm3502-p1ulv1072) Units=km Length=0.014617 bus1=p1udm3502.1.2 bus2=p1ulv1072.1.2 switch=n enabled=y phases=2 Linecode=1P_OH_AL_2/0_Rucina_2

New Line.l(r:p1udm3502-p1ulv7760) Units=km Length=0.0153261 bus1=p1udm3502.1.2 bus2=p1ulv7760.1.2 switch=n enabled=y phases=2 Linecode=1P_OH_AL_2/0_Rucina_2

New Line.l(r:p1udm3502-p1udt959lv) Units=km Length=0.0187501 bus1=p1udt959lv.1.2 bus2=p1udm3502.1.2 switch=n enabled=y phases=2 Linecode=1P_OH_AL_2/0_Rucina_2

New Line.l(r:p1udm3504-p1ulv5881) Units=km Length=0.0130579 bus1=p1udm3504.1.2 bus2=p1ulv5881.1.2 switch=n enabled=y phases=2 Linecode=1P_OH_AL_2/0_Rucina_2

...