external_data/tamu_texas_td/distribution_sample/p1uhs0_1247--p1udt1746/Loads.dss
New Load.load_p1ulv43_1 conn=wye bus1=p1ulv43.1 kV=0.12 Vminpu=0.8 Vmaxpu=1.2 model=1 kW=8.60776795895911 kvar=2.1893473513523944 Phases=1 yearly=res_kw_17978_pu

New Load.load_p1ulv43_2 conn=wye bus1=p1ulv43.2 kV=0.12 Vminpu=0.8 Vmaxpu=1.2 model=1 kW=8.60776795895911 kvar=2.1893473513523944 Phases=1 yearly=res_kw_17978_pu

New Load.load_p1ulv44_1 conn=wye bus1=p1ulv44.1 kV=0.12 Vminpu=0.8 Vmaxpu=1.2 model=1 kW=8.60776795895911 kvar=2.1893473513523944 Phases=1 yearly=res_kw_17978_pu

New Load.load_p1ulv44_2 conn=wye bus1=p1ulv44.2 kV=0.12 Vminpu=0.8 Vmaxpu=1.2 model=1 kW=8.60776795895911 kvar=2.1893473513523944 Phases=1 yearly=res_kw_17978_pu

New Load.load_p1ulv45_1 conn=wye bus1=p1ulv45.1 kV=0.12 Vminpu=0.8 Vmaxpu=1.2 model=1 kW=5.691543528113089 kvar=1.5564485607853333 Phases=1 yearly=res_kw_9613_pu

New Load.load_p1ulv45_2 conn=wye bus1=p1ulv45.2 kV=0.12 Vminpu=0.8 Vmaxpu=1.2 model=1 kW=5.691543528113089 kvar=1.5564485607853333 Phases=1 yearly=res_kw_9613_pu

New Load.load_p1ulv52 conn=wye bus1=p1ulv52.1.2.3 kV=0.48 Vminpu=0.8 Vmaxpu=1.2 model=1 kW=46.39911606384531 kvar=0.44767284839710747 Phases=3 yearly=com_kw_35142_pu

New Load.load_p1ulv53_1 conn=wye bus1=p1ulv53.1 kV=0.12 Vminpu=0.8 Vmaxpu=1.2 model=1 kW=5.850494669124461 kvar=0.8234601250580765 Phases=1 yearly=res_kw_25330_pu

New Load.load_p1ulv53_2 conn=wye bus1=p1ulv53.2 kV=0.12 Vminpu=0.8 Vmaxpu=1.2 model=1 kW=5.850494669124461 kvar=0.8234601250580765 Phases=1 yearly=res_kw_25330_pu

New Load.load_p1ulv54_1 conn=wye bus1=p1ulv54.1 kV=0.12 Vminpu=0.8 Vmaxpu=1.2 model=1 kW=10.343121490967597 kvar=2.662534196475088 Phases=1 yearly=res_kw_9726_pu

New Load.load_p1ulv54_2 conn=wye bus1=p1ulv54.2 kV=0.12 Vminpu=0.8 Vmaxpu=1.2 model=1 kW=10.343121490967597 kvar=2.662534196475088 Phases=1 yearly=res_kw_9726_pu

New Load.load_p1ulv55_1 conn=wye bus1=p1ulv55.1 kV=0.12 Vminpu=0.8 Vmaxpu=1.2 model=1 kW=5.850494669124461 kvar=0.8234601250580765 Phases=1 yearly=res_kw_25330_pu

New Load.load_p1ulv55_2 conn=wye bus1=p1ulv55.2 kV=0.12 Vminpu=0.8 Vmaxpu=1.2 model=1 kW=5.850494669124461 kvar=0.8234601250580765 Phases=1 yearly=res_kw_25330_pu

New Load.load_p1ulv70_1 conn=wye bus1=p1ulv70.1 kV=0.12 Vminpu=0.8 Vmaxpu=1.2 model=1 kW=5.850494669124461 kvar=0.8234601250580765 Phases=1 yearly=res_kw_25330_pu

New Load.load_p1ulv70_2 conn=wye bus1=p1ulv70.2 kV=0.12 Vminpu=0.8 Vmaxpu=1.2 model=1 kW=5.850494669124461 kvar=0.8234601250580765 Phases=1 yearly=res_kw_25330_pu

New Load.load_p1ulv71_1 conn=wye bus1=p1ulv71.1 kV=0.12 Vminpu=0.8 Vmaxpu=1.2 model=1 kW=5.850494669124461 kvar=0.8234601250580765 Phases=1 yearly=res_kw_25330_pu

New Load.load_p1ulv71_2 conn=wye bus1=p1ulv71.2 kV=0.12 Vminpu=0.8 Vmaxpu=1.2 model=1 kW=5.850494669124461 kvar=0.8234601250580765 Phases=1 yearly=res_kw_25330_pu

New Load.load_p1ulv72_1 conn=wye bus1=p1ulv72.1 kV=0.12 Vminpu=0.8 Vmaxpu=1.2 model=1 kW=6.999931342534885 kvar=1.9776107197707575 Phases=1 yearly=res_kw_3379_pu

New Load.load_p1ulv72_2 conn=wye bus1=p1ulv72.2 kV=0.12 Vminpu=0.8 Vmaxpu=1.2 model=1 kW=6.999931342534885 kvar=1.9776107197707575 Phases=1 yearly=res_kw_3379_pu

New Load.load_p1ulv73_1 conn=wye bus1=p1ulv73.1 kV=0.12 Vminpu=0.8 Vmaxpu=1.2 model=1 kW=6.020880629615802 kvar=1.1348477464380902 Phases=1 yearly=res_kw_4239_pu

New Load.load_p1ulv73_2 conn=wye bus1=p1ulv73.2 kV=0.12 Vminpu=0.8 Vmaxpu=1.2 model=1 kW=6.020880629615802 kvar=1.1348477464380902 Phases=1 yearly=res_kw_4239_pu

New Load.load_p1ulv74_1 conn=wye bus1=p1ulv74.1 kV=0.12 Vminpu=0.8 Vmaxpu=1.2 model=1 kW=3.2172356677812353 kvar=1.4107078304786496 Phases=1 yearly=res_kw_6317_pu

New Load.load_p1ulv74_2 conn=wye bus1=p1ulv74.2 kV=0.12 Vminpu=0.8 Vmaxpu=1.2 model=1 kW=3.2172356677812353 kvar=1.4107078304786496 Phases=1 yearly=res_kw_6317_pu

New Load.load_p1ulv85_1 conn=wye bus1=p1ulv85.1 kV=0.12 Vminpu=0.8 Vmaxpu=1.2 model=1 kW=5.850494669124461 kvar=0.8234601250580765 Phases=1 yearly=res_kw_25330_pu

New Load.load_p1ulv85_2 conn=wye bus1=p1ulv85.2 kV=0.12 Vminpu=0.8 Vmaxpu=1.2 model=1 kW=5.850494669124461 kvar=0.8234601250580765 Phases=1 yearly=res_kw_25330_pu

New Load.load_p1ulv86_1 conn=wye bus1=p1ulv86.1 kV=0.12 Vminpu=0.8 Vmaxpu=1.2 model=1 kW=5.850494669124461 kvar=0.8234601250580765 Phases=1 yearly=res_kw_25330_pu

New Load.load_p1ulv86_2 conn=wye bus1=p1ulv86.2 kV=0.12 Vminpu=0.8 Vmaxpu=1.2 model=1 kW=5.850494669124461 kvar=0.8234601250580765 Phases=1 yearly=res_kw_25330_pu

New Load.load_p1ulv197_1 conn=wye bus1=p1ulv197.1 kV=0.12 Vminpu=0.8 Vmaxpu=1.2 model=1 kW=2.6077776029016824 kvar=0.7673832328926916 Phases=1 yearly=res_kw_4467_pu

New Load.load_p1ulv197_2 conn=wye bus1=p1ulv197.2 kV=0.12 Vminpu=0.8 Vmaxpu=1.2 model=1 kW=2.6077776029016824 kvar=0.7673832328926916 Phases=1 yearly=res_kw_4467_pu

New Load.load_p1ulv198_1 conn=wye bus1=p1ulv198.1 kV=0.12 Vminpu=0.8 Vmaxpu=1.2 model=1 kW=5.850494669124461 kvar=0.8234601250580765 Phases=1 yearly=res_kw_25330_pu

...